84
EBAQIH
I       9.381418   12.885347   -1.044812
S       5.204216    8.977980   -0.749601
Si      8.478792   12.110745    2.724919
N       6.372935   10.065537   -0.175237
N       3.906165    9.814314   -1.131722
O       4.924844    8.130373    0.355671
O       5.782941    8.462115   -1.943199
O       4.865332   10.220135    2.612502
O       6.582561    8.840022    2.966756
O       3.509931    8.614566    3.231265
O       4.208946   10.095598    4.755028
C       7.945112   11.594343   -0.212552
C       7.678041   11.364056    1.165730
C       6.699015   10.408015    1.146837
C       7.181602   10.832624   -0.986714
C       8.757351   13.922445    2.544013
C       7.455920   11.831609    4.209005
C      10.070840   11.302861    3.005487
C       6.058124    9.698366    2.299814
C       4.166072    9.618919    3.677625
C       2.681893    7.954839    4.211367
C       3.014144   10.233018   -0.060932
C       3.990736   10.704866   -2.282338
H       7.190588   10.819741   -1.916748
H       7.918133   14.361010    2.386724
H       9.345868   14.083485    1.802442
H       9.153208   14.267070    3.347460
H       6.603498   12.257291    4.094699
H       7.898409   12.201464    4.975610
H       7.327216   10.888988    4.336536
H      10.631258   11.423641    2.235104
H       9.932030   10.365071    3.156163
H      10.495285   11.691504    3.773509
H       2.218629    7.222644    3.798071
H       2.043769    8.579674    4.563259
H       3.232496    7.623634    4.924597
H       3.022278    9.575438    0.637656
H       2.122487   10.324274   -0.404321
H       3.309909   11.076331    0.290016
H       4.599714   10.337694   -2.927079
H       4.306101   11.565893   -1.997518
H       3.121997   10.798269   -2.679574
I      -2.905670    7.517347   10.491574
S       1.271532    3.609980   10.196363
Si     -2.003044    6.742745    6.721844
N       0.102813    4.697537    9.622000
N       2.569583    4.446314   10.578484
O       1.550904    2.762373    9.091092
O       0.692807    3.094115   11.389961
O       1.610416    4.852135    6.834260
O      -0.106813    3.472022    6.480007
O       2.965817    3.246566    6.215497
O       2.266802    4.727598    4.691734
C      -1.469364    6.226343    9.659314
C      -1.202293    5.996056    8.281032
C      -0.223267    5.040015    8.299925
C      -0.705854    5.464624   10.433477
C      -2.281603    8.554445    6.902749
C      -0.980172    6.463609    5.237757
C      -3.595092    5.934861    6.441275
C       0.417624    4.330366    7.146948
C       2.309676    4.250919    5.769138
C       3.793855    2.586839    5.235396
C       3.461604    4.865018    9.507694
C       2.485012    5.336866   11.729100
H      -0.714840    5.451741   11.363510
H      -1.442385    8.993010    7.060038
H      -2.870120    8.715485    7.644320
H      -2.677460    8.899070    6.099302
H      -0.127750    6.889291    5.352063
H      -1.422661    6.833464    4.471153
H      -0.851468    5.520988    5.110226
H      -4.155510    6.055641    7.211658
H      -3.456282    4.997071    6.290599
H      -4.019537    6.323504    5.673253
H       4.257119    1.854644    5.648692
H       4.431979    3.211674    4.883504
H       3.243252    2.255634    4.522165
H       3.453470    4.207438    8.809106
H       4.353261    4.956274    9.851084
H       3.165839    5.708331    9.156747
H       1.876034    4.969694   12.373842
H       2.169647    6.197893   11.444280
H       3.353751    5.430269   12.126336
