24
18dtr7h
N       4.120640    4.078938    3.435969
N       6.295218    2.020626    1.608030
C       4.885750    4.173283    2.157318
C       5.662421    2.936552    1.874462
C       5.839391    5.365016    2.284552
H       6.475230    5.198425    3.011320
H       5.324645    6.175740    2.480195
H       6.328129    5.483459    1.443459
C       3.853438    4.410436    1.051830
H       3.379665    5.251028    1.222362
H       3.211783    3.670012    1.039939
H       4.308961    4.462033    0.185566
N       4.206541    2.980554    3.995885
N       2.031962    5.038866    5.823823
C       3.441430    2.886209    5.274535
C       2.664759    4.122939    5.557391
C       2.487789    1.694476    5.147302
H       1.851950    1.861067    4.420533
H       3.002535    0.883752    4.951658
H       1.999051    1.576033    5.988394
C       4.473742    2.649056    6.380023
H       4.947515    1.808464    6.209492
H       5.115397    3.389480    6.391914
H       4.018219    2.597459    7.246287
