300
42
O       4.404793   11.909801    5.133698
O       4.163189    9.326964    3.599526
O       5.775537   10.141192    5.888799
O       8.146964   10.221362    3.051500
O       6.145200   12.467857    1.919819
N       8.473481   12.981826    3.528702
N       8.798185   12.848751    2.350165
N       9.262042   12.873579    1.315652
C       4.825413   11.710595    3.771405
H       4.058210   11.902492    3.191422
C       5.240345   10.263941    3.526543
H       5.647460   10.202799    2.636486
C       6.291701    9.934909    4.562351
H       6.512017    8.984589    4.471877
C       7.573286   10.746933    4.247959
H       8.210312   10.632073    4.983627
C       7.300074   12.260297    4.049521
H       7.183534   12.607893    4.957716
C       5.986906   12.624832    3.328320
H       5.757485   13.556937    3.526111
C       5.277763   11.442356    6.156335
H       6.031042   12.062599    6.242490
C       3.386165    9.310605    2.406090
H       3.959649    9.105250    1.651852
H       3.003268   10.190037    2.260770
C       2.282632    8.292646    2.484688
C       2.002033    7.603255    3.637530
H       2.524583    7.743175    4.394143
C       0.951395    6.703636    3.690864
H       0.778855    6.238395    4.478355
C       0.165248    6.494800    2.587038
H      -0.538129    5.888015    2.621371
C       0.421188    7.183958    1.436140
H      -0.113248    7.049375    0.686652
C       1.476028    8.081953    1.381078
H       1.643505    8.547193    0.593803
C       9.114737    9.172541    3.267644
H       9.340185    8.767631    2.416239
H       8.719332    8.485703    3.826251
C      10.384721    9.681869    3.929033
C      10.815662    9.208507    5.157234
H      10.325995    8.555315    5.603342
C      11.998413    9.720156    5.731387
H      12.296652    9.391819    6.549108
C      12.706270   10.699364    5.088785
H      13.476806   11.045104    5.478103
C      12.289888   11.161124    3.899235
H      12.771741   11.830559    3.467810
C      11.149517   10.647155    3.309966
H      10.891679   10.962730    2.474539
C       5.684371   13.584782    1.128658
H       5.913910   13.425834    0.200813
H       6.150335   14.385320    1.416490
C       4.205500   13.821695    1.228417
C       3.683442   14.828516    2.015044
H       4.258916   15.397014    2.472380
C       2.319081   15.004867    2.131645
H       1.979664   15.682423    2.671034
C       1.469599   14.183445    1.452766
H       0.550659   14.306426    1.522295
C       1.966214   13.177552    0.669594
H       1.384450   12.607893    0.220247
C       3.327377   13.007002    0.546731
H       3.659062   12.332926   -0.002159
C       4.507935   11.422053    7.441756
C       3.475946   10.531599    7.665242
H       3.257916    9.905788    7.013354
C       2.768058   10.562461    8.841836
H       2.074651    9.959157    8.980462
C       3.077497   11.474378    9.805740
H       2.589821   11.497582   10.597766
C       4.102755   12.354970    9.612269
H       4.317347   12.969876   10.276033
C       4.824790   12.332926    8.425742
H       5.523611   12.933910    8.295969
O       6.783925    6.108801    5.662722
O       7.025530    3.525964    7.196894
O       5.413181    4.340192    4.907621
O       3.041754    4.420362    7.744920
O       5.043518    6.666857    8.876601
N       2.715238    7.180826    7.267718
N       2.390533    7.047751    8.446255
N       1.926676    7.072579    9.480768
C       6.363305    5.909595    7.025015
H       7.130508    6.101492    7.604998
C       5.948373    4.462941    7.269877
H       5.541258    4.401799    8.159934
C       4.897017    4.133909    6.234069
H       4.676701    3.183589    6.324543
C       3.615433    4.945933    6.548461
H       2.978406    4.831073    5.812793
C       3.888644    6.459297    6.746899
H       4.005184    6.806893    5.838704
C       5.201813    6.823832    7.468100
H       5.431233    7.755937    7.270309
C       5.910955    5.641356    4.640085
H       5.157676    6.261599    4.553930
C       7.802553    3.509605    8.390330
H       7.229069    3.304250    9.144568
H       8.185451    4.389037    8.535650
C       8.906087    2.491646    8.311732
C       9.186685    1.802255    7.158890
H       8.664135    1.942175    6.402277
C      10.237323    0.902636    7.105556
H      10.409863    0.437395    6.318065
C      11.023470    0.693800    8.209382
H      11.726848    0.087015    8.175049
C      10.767530    1.382958    9.360280
H      11.301966    1.248375   10.109768
C       9.712690    2.280953    9.415342
H       9.545214    2.746193   10.202617
C       2.073981    3.371541    7.528775
H       1.848533    2.966631    8.380181
H       2.469387    2.684703    6.970169
C       0.803997    3.880869    6.867387
C       0.373056    3.407507    5.639186
H       0.862724    2.754315    5.193078
C      -0.809695    3.919156    5.065032
H      -1.107933    3.590819    4.247312
C      -1.517552    4.898364    5.707635
H      -2.288087    5.244104    5.318316
C      -1.101169    5.360124    6.897185
H      -1.583023    6.029559    7.328610
C       0.039201    4.846155    7.486454
H       0.297039    5.161730    8.321881
C       5.504347    7.783782    9.667762
H       5.274808    7.624834   10.595607
H       5.038383    8.584320    9.379930
C       6.983218    8.020695    9.568003
C       7.505276    9.027516    8.781376
H       6.929802    9.596014    8.324040
C       8.869638    9.203867    8.664775
H       9.209054    9.881423    8.125386
C       9.719119    8.382445    9.343654
H      10.638059    8.505426    9.274125
C       9.222504    7.376552   10.126826
H       9.804268    6.806893   10.576173
C       7.861342    7.206002   10.249689
H       7.529656    6.531926   10.798579
C       6.680784    5.621053    3.354664
C       7.712772    4.730599    3.131178
H       7.930802    4.104788    3.783066
C       8.420661    4.761461    1.954584
H       9.114067    4.158157    1.815958
C       8.111222    5.673378    0.990679
H       8.598897    5.696582    0.198654
C       7.085964    6.553970    1.184151
H       6.871371    7.168876    0.520387
C       6.363929    6.531926    2.370678
H       5.665107    7.132910    2.500451
O       6.222644   -0.307801   16.459142
O       6.464248    2.275036   17.993313
O       4.851900    1.460808   15.704041
O       2.480472    1.380638   18.541340
O       4.482236   -0.865857   19.673021
N       2.153956   -1.379826   18.064138
N       1.829251   -1.246751   19.242675
N       1.365394   -1.271579   20.277188
C       5.802024   -0.108595   17.821434
H       6.569227   -0.300492   18.401418
C       5.387091    1.338059   18.066297
H       4.979977    1.399201   18.956354
C       4.335736    1.667091   17.030489
H       4.115420    2.617411   17.120963
C       3.054151    0.855067   17.344881
H       2.417124    0.969927   16.609212
C       3.327362   -0.658297   17.543319
H       3.443902   -1.005893   16.635124
C       4.640531   -1.022832   18.264520
H       4.869951   -1.954937   18.066729
C       5.349673    0.159644   15.436505
H       4.596395   -0.460599   15.350350
C       7.241271    2.291395   19.186750
H       6.667788    2.496750   19.940988
H       7.624169    1.411963   19.332070
C       8.344805    3.309354   19.108152
C       8.625404    3.998745   17.955310
H       8.102853    3.858825   17.198697
C       9.676041    4.898364   17.901976
H       9.848581    5.363605   17.114485
C      10.462188    5.107200   19.005802
H      11.165566    5.713985   18.971469
C      10.206248    4.418042   20.156700
H      10.740684    4.552625   20.906188
C       9.151408    3.520047   20.211762
H       8.983932    3.054807   20.999037
C       1.512699    2.429459   18.325195
H       1.287251    2.834369   19.176601
H       1.908105    3.116297   17.766589
C       0.242716    1.920131   17.663807
C      -0.188225    2.393493   16.435606
H       0.301442    3.046685   15.989498
C      -1.370976    1.881844   15.861452
H      -1.669215    2.210181   15.043732
C      -2.078834    0.902636   16.504055
H      -2.849369    0.556896   16.114736
C      -1.662451    0.440876   17.693605
H      -2.144305   -0.228559   18.125030
C      -0.522081    0.954845   18.282873
H      -0.264243    0.639270   19.118300
C       4.943066   -1.982782   20.464182
H       4.713526   -1.823834   21.392027
H       4.477102   -2.783320   20.176350
C       6.421937   -2.219695   20.364423
C       6.943994   -3.226516   19.577796
H       6.368520   -3.795014   19.120460
C       8.308356   -3.402867   19.461195
H       8.647773   -4.080423   18.921806
C       9.157838   -2.581445   20.140074
H      10.076777   -2.704426   20.070545
C       8.661222   -1.575552   20.923246
H       9.242987   -1.005893   21.372593
C       7.300060   -1.405002   21.046109
H       6.968374   -0.730926   21.594999
C       6.119502    0.179947   14.151084
C       7.151490    1.070401   13.927598
H       7.369520    1.696212   14.579486
C       7.859379    1.039539   12.751004
H       8.552786    1.642843   12.612378
C       7.549940    0.127622   11.787099
H       8.037616    0.104418   10.995074
C       6.524682   -0.752970   11.980571
H       6.310090   -1.367876   11.316807
C       5.802647   -0.730926   13.167098
H       5.103825   -1.331910   13.296871
O       3.843511    5.493199   15.930118
O       3.601907    8.076036   14.395946
O       5.214255    7.261808   16.685219
O       7.585683    7.181638   13.847920
O       5.583919    4.935143   12.716239
N       7.912199    4.421174   14.325122
N       8.236904    4.554249   13.146585
N       8.700761    4.529421   12.112072
C       4.264131    5.692405   14.567825
H       3.496928    5.500508   13.987842
C       4.679064    7.139059   14.322963
H       5.086178    7.200201   13.432906
C       5.730419    7.468091   15.358771
H       5.950735    8.418411   15.268297
C       7.012004    6.656067   15.044379
H       7.649031    6.770927   15.780047
C       6.738793    5.142703   14.845941
H       6.622253    4.795107   15.754136
C       5.425624    4.778168   14.124740
H       5.196204    3.846063   14.322531
C       4.716482    5.960644   16.952755
H       5.469760    5.340401   17.038910
C       2.824884    8.092395   13.202510
H       3.398367    8.297750   12.448272
H       2.441986    7.212963   13.057190
C       1.721350    9.110354   13.281108
C       1.440751    9.799745   14.433950
H       1.963302    9.659825   15.190563
C       0.390114   10.699364   14.487284
H       0.217574   11.164605   15.274775
C      -0.396033   10.908200   13.383458
H      -1.099411   11.514985   13.417791
C      -0.140093   10.219042   12.232560
H      -0.674529   10.353625   11.483072
C       0.914747    9.321047   12.177498
H       1.082223    8.855807   11.390223
C       8.553456    8.230459   14.064064
H       8.778903    8.635369   13.212659
H       8.158050    8.917297   14.622671
C       9.823439    7.721131   14.725453
C      10.254380    8.194493   15.953654
H       9.764713    8.847685   16.399762
C      11.437131    7.682844   16.527807
H      11.735370    8.011181   17.345528
C      12.144989    6.703636   15.885205
H      12.915524    6.357896   16.274523
C      11.728606    6.241876   14.695655
H      12.210460    5.572441   14.264230
C      10.588236    6.755845   14.106386
H      10.330398    6.440270   13.270959
C       5.123089    3.818218   11.925078
H       5.352628    3.977166   10.997233
H       5.589053    3.017680   12.212910
C       3.644218    3.581305   12.024837
C       3.122161    2.574484   12.811464
H       3.697635    2.005986   13.268800
C       1.757799    2.398133   12.928065
H       1.418382    1.720577   13.467454
C       0.908317    3.219555   12.249186
H      -0.010622    3.096574   12.318715
C       1.404933    4.225448   11.466014
H       0.823168    4.795107   11.016667
C       2.766095    4.395998   11.343151
H       3.097781    5.070074   10.794261
C       3.946653    5.980947   18.238176
C       2.914665    6.871401   18.461662
H       2.696635    7.497212   17.809774
C       2.206776    6.840539   19.638256
H       1.513369    7.443843   19.776882
C       2.516215    5.928622   20.602160
H       2.028539    5.905418   21.394186
C       3.541473    5.048030   20.408689
H       3.756065    4.433124   21.072452
C       4.263508    5.070074   19.222162
H       4.962329    4.469090   19.092389
