136
compound_62
O       1.558267    4.702199   11.029582
O       2.319318    6.937699   11.433317
O      -0.363729    4.294306   10.102746
O       1.126852    8.679157   10.896174
O      -3.361847    5.070533    4.971211
O      -2.654116    7.066045    5.839535
O      -0.645820    6.371572   12.664418
O       1.903078    6.521895   18.494590
C       2.656158    5.538204   11.399380
C       0.453256    5.118883   10.396478
C       0.287908    6.593100   10.066468
C       1.251673    7.488883   10.834151
C       3.776799    5.326346   10.408181
C       3.008728    5.160200   12.820061
C       0.612141    6.822540    8.560360
C      -0.377633    6.121913    7.648737
C      -1.818244    6.391791    8.018535
C      -2.168062    6.833968    9.233252
C      -1.163806    7.059891   10.360201
C      -3.581316    7.218126    9.640498
C      -2.825643    6.122792    6.929035
C      -2.703610    4.781316    6.203482
C      -2.925375    6.377725    4.601413
C      -4.055262    7.066924    3.864157
C      -1.646134    6.303004    3.786921
C      -1.682512    6.438382   11.680240
C      -0.563915    7.534595   13.496464
C       0.207540    7.195270   14.745118
C       1.196029    8.052373   15.215557
C       1.801193    7.863371   16.456019
C       1.413990    6.780344   17.241255
C       0.458631    5.874892   16.762624
C      -0.128181    6.086750   15.524502
C       2.758571    7.516134   19.059820
H       3.482782    5.564576    9.502409
H       4.504234    5.801928   10.684359
H       4.016672    4.395400   10.391797
H       2.265833    5.292062   13.375928
H       3.804260    5.634903   13.036556
H       3.186012    4.272329   12.806018
H       0.540287    7.753486    8.443335
H       1.496506    6.584309    8.336843
H      -0.205036    6.390912    6.731263
H      -0.243127    5.168990    7.631184
H      -1.142149    7.982046   10.508822
H      -3.572828    8.043582   10.192855
H      -4.200165    7.349109    8.905583
H      -4.001375    6.557937   10.227963
H      -3.723279    6.223886    7.312876
H      -3.189618    4.114094    6.634133
H      -1.786723    4.571216    6.027945
H      -3.829760    7.938092    3.658193
H      -4.241889    6.707380    3.007536
H      -4.792969    7.032640    4.338107
H      -1.269158    7.208456    3.639470
H      -0.953028    5.670066    4.236296
H      -1.830111    5.924999    2.902214
H      -2.141548    5.485459   11.497681
H      -2.448233    6.865615   12.014930
H      -0.102029    8.272143   13.036556
H      -1.467694    7.806230   13.743386
H       1.483416    8.764428   14.674903
H       2.500191    8.447959   16.740390
H       0.200742    5.160200   17.269341
H      -0.779708    5.529413   15.243643
H       2.220718    8.351260   19.168653
H       2.963115    7.217247   19.941016
H       3.606285    7.612833   18.501612
O       8.090544    0.306799    0.672892
O       7.329493    2.542299    0.269157
O      10.012540   -0.101094    1.599728
O       8.521959    4.283757    0.806300
O      13.010658    0.675133    6.731263
O      12.302927    2.670645    5.862940
O      10.294631    1.976172   -0.961943
O       7.745734    2.126495   -6.792116
C       6.992653    1.142804    0.303094
C       9.195556    0.723483    1.305996
C       9.360904    2.197700    1.636006
C       8.397139    3.093483    0.868324
C       5.872012    0.930946    1.294294
C       6.640083    0.764800   -1.117586
C       9.036671    2.427140    3.142114
C      10.026444    1.726513    4.053737
C      11.467055    1.996391    3.683939
C      11.816873    2.438568    2.469222
C      10.812617    2.664491    1.342274
C      13.230127    2.822726    2.061976
C      12.474454    1.727392    4.773439
C      12.352421    0.385916    5.498993
C      12.574186    1.982325    7.101061
C      13.704073    2.671524    7.838317
C      11.294945    1.907604    7.915554
C      11.331323    2.042982    0.022235
C      10.212726    3.139195   -1.793989
C       9.441271    2.799870   -3.042643
C       8.452782    3.656973   -3.513083
C       7.847618    3.467971   -4.753545
C       8.234821    2.384944   -5.538781
C       9.190181    1.479492   -5.060150
C       9.776993    1.691350   -3.822028
C       6.890240    3.120734   -7.357346
H       6.166029    1.169176    2.200065
H       5.144577    1.406528    1.018115
H       5.632140    0.000000    1.310677
H       7.382978    0.896662   -1.673454
H       5.844551    1.239503   -1.334082
H       6.462799   -0.123071   -1.103543
H       9.108524    3.358086    3.259139
H       8.152305    2.188909    3.365632
H       9.853847    1.995512    4.971211
H       9.891939    0.773590    4.071291
H      10.790960    3.586646    1.193652
H      13.221639    3.648182    1.509619
H      13.848976    2.953709    2.796891
H      13.650186    2.162537    1.474512
H      13.372090    1.828486    4.389598
H      12.838429   -0.281306    5.068342
H      11.435534    0.175816    5.674530
H      13.478571    3.542692    8.044281
H      13.890701    2.311980    8.694938
H      14.441780    2.637240    7.364367
H      10.917969    2.813056    8.063005
H      10.601839    1.274666    7.466179
H      11.478922    1.529599    8.800261
H      11.790360    1.090059    0.204793
H      12.097045    2.470215   -0.312456
H       9.750841    3.876743   -1.334082
H      11.116505    3.410830   -2.040912
H       8.165395    4.369028   -2.972428
H       7.148620    4.052559   -5.037915
H       9.448070    0.764800   -5.566867
H      10.428519    1.134013   -3.541169
H       7.428093    3.955860   -7.466179
H       6.685696    2.821847   -8.238542
H       6.042527    3.217433   -6.799138
