208
mx3546
O       0.032354   -2.513717   14.813147
N       2.248721   -2.977573   14.901813
C       2.103122   -4.061896   15.879437
H       1.219138   -4.466692   15.756119
C       2.183248   -3.518407   17.304978
H       1.472989   -2.873388   17.447915
H       3.031293   -3.065168   17.432627
C       2.053564   -4.653827   18.321329
H       2.173491   -4.297474   19.216147
H       1.160585   -5.029424   18.268333
C       3.077372   -5.759384   18.080809
H       3.967963   -5.414976   18.250498
H       2.915315   -6.488017   18.698926
C       3.003944   -6.283628   16.655522
H       2.152970   -6.728240   16.517937
H       3.709360   -6.934620   16.515389
C       3.153806   -5.136264   15.638662
H       4.038772   -4.746731   15.717901
H       3.058454   -5.485981   14.739513
C       1.197523   -2.260885   14.477845
C       1.489570   -1.109539   13.563410
C       0.606747   -0.032516   13.587614
H      -0.130694   -0.057070   14.153500
C       0.812135    1.079677   12.776113
H       0.221282    1.797029   12.805669
H       2.973992   -2.700852   14.803210
O       3.370653    2.513717   10.665700
N       1.154285    2.977573   10.577034
C       1.299884    4.061896    9.599410
H       2.183868    4.466692    9.722728
C       1.219759    3.518407    8.173869
H       1.930018    2.873388    8.030933
H       0.371713    3.065168    8.046220
C       1.349442    4.653827    7.157518
H       1.229515    4.297474    6.262701
H       2.242421    5.029424    7.210514
C       0.325634    5.759384    7.398038
H      -0.564957    5.414976    7.228349
H       0.487692    6.488017    6.779921
C       0.399063    6.283628    8.823325
H       1.250037    6.728240    8.960911
H      -0.306354    6.934620    8.963458
C       0.249200    5.136264    9.840186
H      -0.635766    4.746731    9.760946
H       0.344552    5.485981   10.739334
C       2.205484    2.260885   11.001002
C       1.913436    1.109539   11.915438
C       2.796259    0.032516   11.891233
H       3.533701    0.057070   11.325348
C       2.590871   -1.079677   12.702734
H       3.181725   -1.797029   12.673179
H       0.429015    2.700852   10.675637
O       0.032354    4.122283   14.813147
N       2.248721    3.658427   14.901813
C       2.103122    2.574104   15.879437
H       1.219138    2.169308   15.756119
C       2.183248    3.117593   17.304978
H       1.472989    3.762612   17.447915
H       3.031293    3.570832   17.432627
C       2.053564    1.982173   18.321329
H       2.173491    2.338526   19.216147
H       1.160585    1.606576   18.268333
C       3.077372    0.876616   18.080809
H       3.967963    1.221024   18.250498
H       2.915315    0.147983   18.698926
C       3.003944    0.352372   16.655522
H       2.152970   -0.092240   16.517937
H       3.709360   -0.298620   16.515389
C       3.153806    1.499736   15.638662
H       4.038772    1.889269   15.717901
H       3.058454    1.150019   14.739513
C       1.197523    4.375115   14.477845
C       1.489570    5.526461   13.563410
C       0.606747    6.603484   13.587614
H      -0.130694    6.578930   14.153500
C       0.812135    7.715677   12.776113
H       0.221282    8.433029   12.805669
H       2.973992    3.935148   14.803210
O       3.370653    9.149717   10.665700
N       1.154285    9.613573   10.577034
C       1.299884   10.697896    9.599410
H       2.183868   11.102692    9.722728
C       1.219759   10.154407    8.173869
H       1.930018    9.509388    8.030933
H       0.371713    9.701168    8.046220
C       1.349442   11.289827    7.157518
H       1.229515   10.933474    6.262701
H       2.242421   11.665424    7.210514
C       0.325634   12.395384    7.398038
H      -0.564957   12.050976    7.228349
H       0.487692   13.124017    6.779921
C       0.399063   12.919628    8.823325
H       1.250037   13.364240    8.960911
H      -0.306354   13.570620    8.963458
C       0.249200   11.772264    9.840186
H      -0.635766   11.382731    9.760946
H       0.344552   12.121981   10.739334
C       2.205484    8.896885   11.001002
C       1.913436    7.745539   11.915438
C       2.796259    6.668516   11.891233
H       3.533701    6.693070   11.325348
C       2.590871    5.556323   12.702734
H       3.181725    4.838971   12.673179
H       0.429015    9.336852   10.675637
O       4.251650    0.804283   -2.073723
N       2.035282    0.340427   -2.162390
C       2.180881   -0.743896   -3.140013
H       3.064865   -1.148692   -3.016696
C       2.100756   -0.200407   -4.565555
H       2.811014    0.444612   -4.708491
H       1.252710    0.252832   -4.693204
C       2.230439   -1.335827   -5.581906
H       2.110512   -0.979474   -6.476723
H       3.123418   -1.711424   -5.528910
C       1.206631   -2.441384   -5.341386
H       0.316040   -2.096976   -5.511075
H       1.368688   -3.170017   -5.959502
C       1.280059   -2.965628   -3.916099
H       2.131034   -3.410240   -3.778513
H       0.574643   -3.616620   -3.775965
C       1.130197   -1.818264   -2.899238
H       0.245231   -1.428731   -2.978477
H       1.225549   -2.167981   -2.000090
C       3.086480    1.057115   -1.738422
C       2.794433    2.208461   -0.823986
C       3.677256    3.285484   -0.848191
H       4.414698    3.260930   -1.414076
C       3.471868    4.397677   -0.036690
H       4.062722    5.115029   -0.066245
H       1.310011    0.617148   -2.063787
O       0.913350    5.831717    2.073723
N       3.129718    6.295573    2.162390
C       2.984119    7.379896    3.140013
H       2.100135    7.784692    3.016696
C       3.064244    6.836407    4.565555
H       2.353986    6.191388    4.708491
H       3.912290    6.383168    4.693204
C       2.934561    7.971827    5.581906
H       3.054488    7.615474    6.476723
H       2.041582    8.347424    5.528910
C       3.958369    9.077384    5.341386
H       4.848960    8.732976    5.511075
H       3.796312    9.806017    5.959502
C       3.884941    9.601628    3.916099
H       3.033966   10.046240    3.778513
H       4.590357   10.252620    3.775965
C       4.034803    8.454264    2.899238
H       4.919769    8.064731    2.978477
H       3.939451    8.803981    2.000090
C       2.078520    5.578885    1.738422
C       2.370567    4.427539    0.823986
C       1.487744    3.350516    0.848191
H       0.750302    3.375070    1.414076
C       1.693132    2.238323    0.036690
H       1.102278    1.520971    0.066245
H       3.854989    6.018852    2.063787
O       2.489656    0.804283   23.405124
N       0.273288    0.340427   23.316457
C       0.418888   -0.743896   22.338834
H       1.302871   -1.148692   22.462152
C       0.338762   -0.200407   20.913293
H       1.049021    0.444612   20.770356
H      -0.509284    0.252832   20.785644
C       0.468445   -1.335827   19.896941
H       0.348519   -0.979474   19.002124
H       1.361425   -1.711424   19.949937
C      -0.555363   -2.441384   20.137462
H      -1.445953   -2.096976   19.967773
H      -0.393305   -3.170017   19.519345
C      -0.481934   -2.965628   21.562748
H       0.369040   -3.410240   21.700334
H      -1.187351   -3.616620   21.702882
C      -0.631796   -1.818264   22.579609
H      -1.516763   -1.428731   22.500370
H      -0.536445   -2.167981   23.478758
C       1.324487    1.057115   23.740425
C       1.032439    2.208461   24.654861
C       1.915262    3.285484   24.630656
H       2.652704    3.260930   24.064771
C       1.709874    4.397677   25.442158
H       2.300728    5.115029   25.412602
H      -0.451982    0.617148   23.415061
O      -0.848643    5.831717   27.552571
N       1.367725    6.295573   27.641237
C       1.222125    7.379896   28.618860
H       0.338141    7.784692   28.495543
C       1.302251    6.836407   30.044402
H       0.591992    6.191388   30.187338
H       2.150297    6.383168   30.172051
C       1.172567    7.971827   31.060753
H       1.292494    7.615474   31.955570
H       0.279588    8.347424   31.007757
C       2.196376    9.077384   30.820233
H       3.086966    8.732976   30.989922
H       2.034318    9.806017   31.438350
C       2.122947    9.601628   29.394946
H       1.271973   10.046240   29.257360
H       2.828363   10.252620   29.254812
C       2.272809    8.454264   28.378085
H       3.157775    8.064731   28.457324
H       2.177457    8.803981   27.478937
C       0.316526    5.578885   27.217269
C       0.608574    4.427539   26.302833
C      -0.274249    3.350516   26.327038
H      -1.011691    3.375070   26.892923
C      -0.068861    2.238323   25.515537
H      -0.659715    1.520971   25.545092
H       2.092995    6.018852   27.542634
