180
BIFPIP
S       2.052864    1.896851   19.652674
C       2.152260    2.104986   17.844624
C       0.813120    2.566238   17.270064
C      -0.198660    1.438649   17.363808
C       0.305580    0.154767   16.722720
C       1.695540   -0.205086   17.254944
C       2.356860   -1.325051   16.477776
C       3.832620    1.723786   19.982592
C       4.088040    1.695578   21.488544
C       5.584260    1.642972   21.790944
C       5.891160    1.636110   23.290848
C       7.386060    1.634586   23.587200
C       7.692300    1.619338   25.081056
C       9.185880    1.642210   25.386480
O       1.009800    3.025966   15.933456
O      -1.417680    1.874742   16.762032
O      -0.631620   -0.856175   17.061408
O       2.590500    0.929366   17.152128
O       2.399100   -1.054399   15.077664
H       1.359600    2.393936   15.301440
H      -1.914000    1.334200   16.904160
H      -0.686400   -1.326576   16.420320
H       2.890800   -0.442192   14.938560
H       2.838000    2.775136   17.660160
H       0.495000    3.354560   17.781120
H      -0.363000    1.257960   18.295200
H       0.382800    0.259216   15.785280
H       1.577400   -0.472688   18.174240
H       3.240600   -1.517176   16.783200
H       1.841400   -2.165216   16.571520
H       4.138200    0.861512   19.565280
H       4.336200    2.493048   19.595520
H       3.616800    2.546416   21.924000
H       3.643200    0.861512   21.833280
H       5.940000    0.861512   21.349440
H       6.052200    2.439680   21.319200
H       5.484600    0.869136   23.708160
H       5.431800    2.508296   23.738400
H       7.827600    0.815768   23.133600
H       7.788000    2.432056   23.163840
H       7.319400    0.815768   25.492320
H       7.227000    2.393936   25.522560
H       9.609600    0.884384   24.978240
H       9.319200    1.570544   26.369280
H       9.636000    2.454928   25.099200
S      -1.247136    1.915149   10.587326
C      -1.147740    1.707014   12.395376
C      -2.486880    1.245762   12.969936
C      -3.498660    2.373351   12.876192
C      -2.994420    3.657233   13.517280
C      -1.604460    4.017086   12.985056
C      -0.943140    5.137051   13.762224
C       0.532620    2.088214   10.257408
C       0.788040    2.116422    8.751456
C       2.284260    2.169028    8.449056
C       2.591160    2.175890    6.949152
C       4.086060    2.177414    6.652800
C       4.392300    2.192662    5.158944
C       5.885880    2.169790    4.853520
O      -2.290200    0.786034   14.306544
O      -4.717680    1.937258   13.477968
O      -3.931620    4.668175   13.178592
O      -0.709500    2.882634   13.087872
O      -0.900900    4.866399   15.162336
H      -1.940400    1.418064   14.938560
H      -5.214000    2.477800   13.335840
H      -3.986400    5.138576   13.819680
H      -0.409200    4.254192   15.301440
H      -0.462000    1.036864   12.579840
H      -2.805000    0.457440   12.458880
H      -3.663000    2.554040   11.944800
H      -2.917200    3.552784   14.454720
H      -1.722600    4.284688   12.065760
H      -0.059400    5.329176   13.456800
H      -1.458600    5.977216   13.668480
H       0.838200    2.950488   10.674720
H       1.036200    1.318952   10.644480
H       0.316800    1.265584    8.316000
H       0.343200    2.950488    8.406720
H       2.640000    2.950488    8.890560
H       2.752200    1.372320    8.920800
H       2.184600    2.942864    6.531840
H       2.131800    1.303704    6.501600
H       4.527600    2.996232    7.106400
H       4.488000    1.379944    7.076160
H       4.019400    2.996232    4.747680
H       3.927000    1.418064    4.717440
H       6.309600    2.927616    5.261760
H       6.019200    2.241456    3.870720
H       6.336000    1.357072    5.140800
S       4.547136    5.708851   25.707326
C       4.447740    5.916986   27.515376
C       5.786880    6.378238   28.089936
C       6.798660    5.250649   27.996192
C       6.294420    3.966767   28.637280
C       4.904460    3.606914   28.105056
C       4.243140    2.486949   28.882224
C       2.767380    5.535786   25.377408
C       2.511960    5.507578   23.871456
C       1.015740    5.454972   23.569056
C       0.708840    5.448110   22.069152
C      -0.786060    5.446586   21.772800
C      -1.092300    5.431338   20.278944
C      -2.585880    5.454210   19.973520
O       5.590200    6.837966   29.426544
O       8.017680    5.686742   28.597968
O       7.231620    2.955825   28.298592
O       4.009500    4.741366   28.207872
O       4.200900    2.757601   30.282336
H       5.240400    6.205936   30.058560
H       8.514000    5.146200   28.455840
H       7.286400    2.485424   28.939680
H       3.709200    3.369808   30.421440
H       3.762000    6.587136   27.699840
H       6.105000    7.166560   27.578880
H       6.963000    5.069960   27.064800
H       6.217200    4.071216   29.574720
H       5.022600    3.339312   27.185760
H       3.359400    2.294824   28.576800
H       4.758600    1.646784   28.788480
H       2.461800    4.673512   25.794720
H       2.263800    6.305048   25.764480
H       2.983200    6.358416   23.436000
H       2.956800    4.673512   23.526720
H       0.660000    4.673512   24.010560
H       0.547800    6.251680   24.040800
H       1.115400    4.681136   21.651840
H       1.168200    6.320296   21.621600
H      -1.227600    4.627768   22.226400
H      -1.188000    6.244056   22.196160
H      -0.719400    4.627768   19.867680
H      -0.627000    6.205936   19.837440
H      -3.009600    4.696384   20.381760
H      -2.719200    5.382544   18.990720
H      -3.036000    6.266928   20.260800
S       7.847136    5.727149    4.532674
C       7.747740    5.519014    2.724624
C       9.086880    5.057762    2.150064
C      10.098660    6.185351    2.243808
C       9.594420    7.469233    1.602720
C       8.204460    7.829086    2.134944
C       7.543140    8.949051    1.357776
C       6.067380    5.900214    4.862592
C       5.811960    5.928422    6.368544
C       4.315740    5.981028    6.670944
C       4.008840    5.987890    8.170848
C       2.513940    5.989414    8.467200
C       2.207700    6.004662    9.961056
C       0.714120    5.981790   10.266480
O       8.890200    4.598034    0.813456
O      11.317680    5.749258    1.642032
O      10.531620    8.480175    1.941408
O       7.309500    6.694634    2.032128
O       7.500900    8.678399   -0.042336
H       8.540400    5.230064    0.181440
H      11.814000    6.289800    1.784160
H      10.586400    8.950576    1.300320
H       7.009200    8.066192   -0.181440
H       7.062000    4.848864    2.540160
H       9.405000    4.269440    2.661120
H      10.263000    6.366040    3.175200
H       9.517200    7.364784    0.665280
H       8.322600    8.096688    3.054240
H       6.659400    9.141176    1.663200
H       8.058600    9.789216    1.451520
H       5.761800    6.762488    4.445280
H       5.563800    5.130952    4.475520
H       6.283200    5.077584    6.804000
H       6.256800    6.762488    6.713280
H       3.960000    6.762488    6.229440
H       3.847800    5.184320    6.199200
H       4.415400    6.754864    8.588160
H       4.468200    5.115704    8.618400
H       2.072400    6.808232    8.013600
H       2.112000    5.191944    8.043840
H       2.580600    6.808232   10.372320
H       2.673000    5.230064   10.402560
H       0.290400    6.739616    9.858240
H       0.580800    6.053456   11.249280
H       0.264000    5.169072    9.979200
