86
a17293
C       3.463544    6.112611   10.925126
C       4.367378    5.011530   10.762585
H       4.342607    4.309017   11.530237
C       5.124428    4.807726    9.672171
C       5.924507    3.561753    9.526414
C       5.491714    2.359038   10.080069
H       4.660008    2.324122   10.537546
C       6.261690    1.215891    9.969205
H       5.958395    0.403150   10.355350
C       7.469890    1.248637    9.301706
H       8.000860    0.463827    9.234569
C       7.901676    2.428949    8.732813
H       8.729859    2.454033    8.267275
C       7.137351    3.575494    8.835174
H       7.440004    4.380130    8.431803
C       5.189463    5.811748    8.565966
C       4.934241    5.262189    7.269283
C       4.669169    4.680037    6.248655
C       4.307193    3.976178    5.050469
C       4.879304    2.744943    4.756527
H       5.553574    2.388824    5.323432
C       4.470764    2.034922    3.641267
H       4.871208    1.196958    3.440741
C       3.482935    2.539902    2.817521
H       3.194638    2.043485    2.060470
C       2.918016    3.762061    3.096005
H       2.244239    4.113224    2.525345
C       3.325907    4.479809    4.199007
H       2.934333    5.325625    4.380430
C       5.465051    7.106063    8.843676
H       5.572519    7.301196    9.766802
C       5.624592    8.254834    7.950806
C       5.503297    8.204640    6.560597
H       5.239718    7.393740    6.141657
C       5.761506    9.319414    5.784884
H       5.687122    9.263450    4.839785
C       6.125822   10.508459    6.369788
H       6.303124   11.270386    5.831372
C       6.232033   10.590646    7.739128
H       6.478234   11.413594    8.145811
C       5.981464    9.478013    8.528533
H       6.052893    9.547204    9.473080
N       2.699487    6.953683   11.091642
C      10.007590    3.325925    0.117047
C       9.103756    4.427006    0.279588
H       9.128527    5.129519   -0.488064
C       8.346707    4.630810    1.370002
C       7.546628    5.876783    1.515759
C       7.979420    7.079498    0.962105
H       8.811127    7.114415    0.504627
C       7.209445    8.222646    1.072968
H       7.512739    9.035387    0.686823
C       6.001244    8.189899    1.740467
H       5.470275    8.974710    1.807604
C       5.569459    7.009587    2.309360
H       4.741275    6.984503    2.774898
C       6.333784    5.863042    2.206999
H       6.031130    5.058406    2.610370
C       8.281671    3.626788    2.476207
C       8.536893    4.176348    3.772890
C       8.801966    4.758499    4.793518
C       9.163942    5.462358    5.991704
C       8.591831    6.693594    6.285647
H       7.917561    7.049713    5.718741
C       9.000371    7.403614    7.400906
H       8.599926    8.241578    7.601432
C       9.988199    6.898634    8.224652
H      10.276497    7.395052    8.981704
C      10.553118    5.676475    7.946169
H      11.226896    5.325312    8.516828
C      10.145228    4.958727    6.843166
H      10.536801    4.112912    6.661743
C       8.006084    2.332474    2.198497
H       7.898615    2.137340    1.275371
C       7.846543    1.183702    3.091367
C       7.967838    1.233897    4.481576
H       8.231416    2.044796    4.900516
C       7.709629    0.119122    5.257289
H       7.784013    0.175086    6.202389
C       7.345313   -1.069923    4.672385
H       7.168011   -1.831850    5.210802
C       7.239102   -1.152109    3.303045
H       6.992900   -1.975057    2.896362
C       7.489671   -0.039477    2.513640
H       7.418242   -0.108668    1.569093
N      10.771647    2.484853   -0.049469
