20

C 0.985897 0.166607 -0.0316692
C 0.775737 -1.1078 -0.869391
N -0.515896 -1.24143 -1.33795
C -0.830597 -2.21823 -2.36127
C -0.563135 -1.65198 -3.74841
O -0.270279 -0.500172 -4.0317
N 0.203711 1.27859 -0.625406
O 1.66377 -1.92809 -1.07428
O -0.729264 -2.57161 -4.72153
H 0.375643 2.12229 -0.0775892
H 0.583934 1.47195 -1.55567
C 0.530542 -0.0598411 1.40472
H 2.049 0.428274 -0.0640117
H -1.0226 -0.357655 -1.33779
H -0.226984 -3.1192 -2.21504
H -1.89476 -2.45082 -2.27333
H -0.522997 -2.07936 -5.54427
H 1.08254 -0.885794 1.86682
H 0.696542 0.836656 2.01071
H -0.535555 -0.308255 1.45449
20

C 0.921628 0.202051 -0.0643147
C 0.633783 -1.15355 -0.742842
N 0.982911 -1.1662 -2.0807
C 0.532587 -2.22479 -2.9736
C -0.620118 -1.76659 -3.85921
O -1.26828 -2.46973 -4.61825
N -0.0844259 1.18471 -0.51753
O 0.107604 -2.10593 -0.177242
O -0.848087 -0.431878 -3.81773
H -0.992588 0.905148 -0.140617
H -0.189257 1.12573 -1.53071
C 0.892878 0.0979455 1.45456
H 1.91522 0.541855 -0.377572
H 1.19547 -0.275687 -2.51434
H 1.37881 -2.47513 -3.62023
H 0.21379 -3.10149 -2.40462
H -1.58535 -0.31411 -4.45521
H 1.14165 1.0588 1.91915
H -0.0895402 -0.21519 1.82588
H 1.62472 -0.639809 1.8028
20

C 0.730898 0.351014 -0.132188
C 0.410409 -0.977825 -0.852831
N -0.724711 -0.902744 -1.64547
C -1.05136 -1.99486 -2.55073
C -0.401026 -1.75602 -3.90295
O 0.0629331 -0.700521 -4.30847
N -0.413022 0.744115 0.716851
O 1.0786 -1.99924 -0.739478
O -0.432846 -2.84234 -4.69906
H -0.482749 0.0819186 1.49114
H -1.27752 0.626442 0.189501
C 1.9906 0.244458 0.717467
H 0.883302 1.11681 -0.90129
H -0.981754 0.0264085 -1.95982
H -0.707276 -2.94654 -2.13623
H -2.13682 -2.00611 -2.68031
H 0.016874 -2.55401 -5.52082
H 1.88303 -0.513018 1.50197
H 2.85027 -0.042465 0.102201
H 2.22453 1.20083 1.19737
20

C 0.803565 0.0950142 0.199469
C 0.615928 -0.907851 -0.956794
N 0.757065 -0.352019 -2.21031
C 0.82543 -1.17218 -3.41662
C -0.502059 -1.7604 -3.89437
O -0.832318 -1.79197 -5.07317
N -0.281817 1.09266 0.15895
O 0.292844 -2.08591 -0.824804
O -1.24732 -2.34435 -2.92993
H -1.16267 0.636926 0.408933
H -0.41365 1.43164 -0.793263
C 0.819169 -0.606962 1.55073
H 1.76125 0.606081 0.0491493
H 1.15827 0.577184 -2.26274
H 1.21488 -0.525094 -4.20799
H 1.53089 -1.99258 -3.25254
H -0.777463 -2.38432 -2.06105
H 1.61827 -1.35643 1.58556
H 0.990098 0.106749 2.36446
H -0.125757 -1.12703 1.74876
20

C 0.680019 0.00676379 -0.463052
C 0.749386 -1.52699 -0.56363
N 0.668594 -2.09769 -1.80298
C 0.793575 -1.48565 -3.12423
C -0.52905 -1.23542 -3.84412
O -0.637499 -1.23889 -5.06328
N -0.685145 0.41816 -0.874233
O 0.800789 -2.25887 0.423381
O -1.56039 -0.908745 -3.03656
H -0.712614 1.44329 -0.891392
H -1.32316 0.174699 -0.103847
C 0.970204 0.493367 0.951833
H 1.41919 0.444063 -1.14055
H 0.648215 -3.1113 -1.76708
H 1.34323 -0.543988 -3.06319
H 1.37258 -2.19145 -3.72789
H -1.24671 -0.667381 -2.12857
H 1.96522 0.165997 1.27259
H 0.939519 1.58797 1.00585
H 0.246644 0.0950453 1.673
20

C 0.682131 0.0967698 -0.495472
C 0.493418 -1.42727 -0.655587
N -0.520697 -1.88264 -1.45663
C -1.20051 -1.15524 -2.52386
C -0.545015 -1.32068 -3.89019
O -0.896283 -0.759156 -4.91598
N -0.422635 0.64407 0.318071
O 1.17161 -2.25375 -0.0455398
O 0.478247 -2.19753 -3.91281
H -0.326841 0.285232 1.27044
H -1.30702 0.265494 -0.0184545
C 2.01021 0.421468 0.181129
H 0.680239 0.564502 -1.48504
H -0.478614 -2.89032 -1.5613
H -2.2093 -1.57337 -2.58685
H -1.2569 -0.090875 -2.29302
H 0.782135 -2.19967 -4.84525
H 2.07263 -0.011778 1.18615
H 2.84634 0.0177454 -0.400166
H 2.15274 1.50387 0.269256
20

C 0.753813 -0.155337 0.358424
C 0.996614 -0.804105 -1.01564
N 0.23089 -0.300518 -2.0482
C 0.384534 -0.779259 -3.42161
C -0.6536 -1.83652 -3.78041
O -0.818669 -2.26937 -4.91292
N 0.384459 1.26567 0.239439
O 1.72017 -1.7836 -1.16335
O -1.38548 -2.26199 -2.72291
H -0.597712 1.39696 0.0153928
H 0.972836 1.74467 -0.439449
C -0.362252 -0.908928 1.07032
H 1.68911 -0.226604 0.924929
H -0.22887 0.591875 -1.90379
H 0.242688 0.0860529 -4.07506
H 1.38054 -1.20985 -3.5613
H -1.02505 -1.87215 -1.90157
H -0.483447 -0.555193 2.09901
H -1.32369 -0.793601 0.553708
H -0.143561 -1.98202 1.10447
20

C 0.879346 0.160117 -0.035563
C 0.644205 -1.14157 -0.827947
N 1.13084 -1.08559 -2.12219
C 0.719298 -2.08765 -3.08667
C -0.567709 -1.62531 -3.76144
O -0.810513 -0.451825 -4.01738
N -0.052897 1.19692 -0.519673
O 0.0454637 -2.11973 -0.39078
O -1.41105 -2.62772 -4.09418
H -1.00445 0.930076 -0.257202
H -0.0614289 1.22342 -1.53963
C 0.673505 -0.0515949 1.45896
H 1.90836 0.492464 -0.213759
H 1.34491 -0.164846 -2.49027
H 1.50034 -2.18077 -3.84598
H 0.571446 -3.04878 -2.58701
H -1.14148 -3.50713 -3.76504
H 1.3554 -0.821602 1.8358
H 0.86565 0.871002 2.01718
H -0.347302 -0.380122 1.6862
20

C 0.912964 0.303935 0.0171074
C 0.599516 -1.05748 -0.639983
N 0.151083 -0.94818 -1.93928
C -0.116151 -2.12981 -2.7355
C -0.595075 -1.73341 -4.12365
O -0.564258 -0.588366 -4.55534
N -0.324412 1.10361 0.111028
O 0.712932 -2.14138 -0.0768647
O -1.04463 -2.77574 -4.85905
H -0.969219 0.634583 0.749247
H -0.793595 1.11383 -0.793938
C 1.51851 0.132854 1.40467
H 1.6288 0.830257 -0.624771
H 0.239052 -0.0617614 -2.43042
H 0.806216 -2.71207 -2.82068
H -0.887666 -2.71678 -2.22817
H -1.01805 -3.63732 -4.39929
H 0.84711 -0.417633 2.07378
H 2.45808 -0.428111 1.34867
H 1.73614 1.10399 1.86327
20

C 0.925345 0.0225295 0.156814
C 0.837598 -1.22173 -0.76084
N -0.392056 -1.46913 -1.32474
C -0.540116 -2.41022 -2.41951
C -0.769086 -1.62601 -3.70282
O -1.38091 -0.564763 -3.73914
N 1.37187 1.17087 -0.650671
O 1.83873 -1.88176 -1.0426
O -0.279296 -2.21795 -4.81048
H 0.726243 1.3246 -1.42622
H 2.26173 0.91707 -1.08853
C -0.361596 0.364201 0.89713
H 1.69532 -0.19241 0.908071
H -1.06939 -0.713066 -1.31779
H 0.348061 -3.04136 -2.50958
H -1.41912 -3.03184 -2.22664
H 0.223751 -3.039 -4.64419
H -1.1386 0.752293 0.229695
H -0.764862 -0.519184 1.40477
H -0.178551 1.13535 1.65286
