24
gauss_compare.xyz
C         -1.19417       -0.67299       -0.05293
C         -1.21820        0.71424       -0.04410
C         -0.03548        1.44642        0.00434
C          1.17361        0.75033        0.03202
C          1.19068       -0.63216        0.02953
C          0.00775       -1.36972       -0.01029
H         -2.12684       -1.22241       -0.10269
H         -2.17144        1.22366       -0.10526
C         -0.03467        2.92994        0.01782
H          2.09596        1.31448        0.05328
H          2.14016       -1.15486        0.05751
C         -0.99502        5.04966       -0.56145
H         -1.87657        3.16538       -1.07672
C          1.01133        4.85236        0.69329
C          0.06033        5.66473        0.09331
H         -1.77290        5.63864       -1.03062
H          1.84899        5.29053        1.22572
H          0.14421        6.74119        0.14769
N          0.97221        3.52663        0.66148
C         -1.04835        3.66818       -0.59780
C          0.04320       -2.87233       -0.00234
H          0.71589       -3.25159       -0.77288
H          0.40412       -3.24600        0.95803
H         -0.94656       -3.29216       -0.17621
24
gauss_compare.xyz
C         -1.19417       -0.67299       -0.05293
C         -1.21820        0.71424       -0.04410
C         -0.03548        1.44642        0.00434
C          1.17361        0.75033        0.03202
C          1.19068       -0.63216        0.02953
C          0.00775       -1.36972       -0.01029
H         -2.12684       -1.22241       -0.10269
H         -2.17144        1.22366       -0.10526
C         -0.03467        2.92994        0.01782
H          2.09596        1.31448        0.05328
H          2.14016       -1.15486        0.05751
C          1.09861        5.04281        0.06763
H          2.10914        3.15312        0.03535
C         -1.26784        4.85993       -0.00437
C         -0.13948        5.66527        0.04625
H          2.01024        5.62641        0.08916
H         -2.25726        5.30420       -0.03316
H         -0.23331        6.74219        0.05965
N         -1.22544        3.53400       -0.01878
C          1.15526        3.66111        0.04904
C          0.04320       -2.87233       -0.00234
H          0.71589       -3.25159       -0.77288
H          0.40412       -3.24600        0.95803
H         -0.94656       -3.29216       -0.17621
24
gauss_compare.xyz
C         -1.19417       -0.67299       -0.05293
C         -1.21820        0.71424       -0.04410
C         -0.03548        1.44642        0.00434
C          1.17361        0.75033        0.03202
C          1.19068       -0.63216        0.02953
C          0.00775       -1.36972       -0.01029
H         -2.12684       -1.22241       -0.10269
H         -2.17144        1.22366       -0.10526
C         -0.03467        2.92994        0.01782
H          2.09596        1.31448        0.05328
H          2.14016       -1.15486        0.05751
C          0.96554        5.04801       -0.49637
H          1.83617        3.16292       -1.02702
C         -1.12592        4.85426        0.61132
C         -0.12380        5.66478        0.09836
H          1.76589        5.63578       -0.92773
H         -2.00203        5.29397        1.07634
H         -0.20348        6.74128        0.15799
N         -1.09033        3.52852        0.57588
C          1.01169        3.66656       -0.54257
C          0.04320       -2.87233       -0.00234
H          0.71589       -3.25159       -0.77288
H          0.40412       -3.24600        0.95803
H         -0.94656       -3.29216       -0.17621
