252
shelx
Br      4.568036   30.156977    2.910682
P       4.777882   27.131560    3.080222
C       2.933214   22.402605   -1.639273
H       2.469643   21.714256   -2.159749
H       3.884102   22.176514   -1.570479
H       2.836937   23.269931   -2.086429
C       2.319737   22.480834   -0.228104
C       2.952023   23.616921    0.596511
C       4.177131   24.179927    0.268837
H       4.625431   23.859606   -0.504183
C       4.786892   25.192745    1.011986
C       4.095705   25.687301    2.144361
C       4.077045   28.425882    2.262033
C       3.186776   28.406325    1.178538
C       2.421269   28.310614    0.255259
C       1.528498   28.130155   -0.844529
C       0.930368   29.218239   -1.476341
H       1.105698   30.103047   -1.178538
C       0.078694   28.995999   -2.541733
H      -0.331798   29.735612   -2.973501
C      -0.184712   27.717976   -2.986174
H      -0.775669   27.581373   -3.717556
C       1.263830   26.847390   -1.307073
H       1.675551   26.102741   -0.887072
C       0.405365   26.644116   -2.375180
H       0.226217   25.761974   -2.682035
C       6.173971   25.678116    0.509614
C       7.209902   25.788939    1.638368
H       8.093728   25.969397    1.254573
H       7.238193   24.947097    2.138930
H       6.959173   26.520551    2.241214
C       6.050142   27.026960   -0.221768
H       6.903787   27.246532   -0.649916
H       5.818251   27.726569    0.422717
H       5.349061   26.965029   -0.903365
C       6.786061   24.705597   -0.513234
H       6.206381   24.653741   -1.301642
H       6.868382   23.815158   -0.109526
H       7.672172   25.027103   -0.779356
C       2.343578   24.064659    1.769618
H       1.527999   23.658109    2.038455
C       2.869128   25.074217    2.565267
C       2.078689   25.457654    3.847901
C       2.972714   25.461210    5.106095
H       3.637271   26.176820    5.031870
H       3.430243   24.597440    5.183940
H       2.417734   25.610851    5.899934
C       1.367425   26.818647    3.683159
H       0.778062   26.973919    4.450748
H       0.836960   26.813906    2.859449
H       2.037227   27.533961    3.635185
C       0.955127   24.440391    4.152945
H       1.342487   23.545508    4.256135
H       0.309776   24.434465    3.415227
H       0.499192   24.695225    4.982991
C       0.813130   22.693294   -0.385605
H       0.385315   22.659514    0.495131
H       0.441637   21.989833   -0.956770
H       0.647277   23.566250   -0.795649
C       2.596927   21.161621    0.476122
H       2.215245   21.186809    1.378582
H       3.565105   21.020870    0.534959
H       2.190076   20.428232   -0.030776
Br     -0.837872   15.341027    1.615195
P      -1.047718   12.315610    1.445656
C       0.796950    7.586655    6.165150
H       1.260521    6.898306    6.685626
H      -0.153938    7.360564    6.096357
H       0.893227    8.453981    6.612307
C       1.410427    7.664884    4.753982
C       0.778141    8.800971    3.929367
C      -0.446967    9.363977    4.257040
H      -0.895267    9.043656    5.030060
C      -1.056729   10.376795    3.513891
C      -0.365541   10.871351    2.381517
C      -0.346881   13.609932    2.263844
C       0.543388   13.590375    3.347339
C       1.308894   13.494664    4.270618
C       2.201666   13.314205    5.370406
C       2.799796   14.402289    6.002218
H       2.624466   15.287097    5.704416
C       3.651469   14.180049    7.067610
H       4.061962   14.919662    7.499379
C       3.914876   12.902026    7.512051
H       4.505833   12.765423    8.243433
C       2.466334   12.031440    5.832951
H       2.054613   11.286791    5.412949
C       3.324799   11.828166    6.901058
H       3.503947   10.946024    7.207912
C      -2.443808   10.862166    4.016264
C      -3.479738   10.972989    2.887510
H      -4.363564   11.153447    3.271304
H      -3.508029   10.131147    2.386948
H      -3.229009   11.704601    2.284663
C      -2.319978   12.211010    4.747645
H      -3.173623   12.430582    5.175793
H      -2.088087   12.910619    4.103160
H      -1.618897   12.149079    5.429242
C      -3.055897    9.889647    5.039112
H      -2.476217    9.837791    5.827520
H      -3.138218    8.999208    4.635404
H      -3.942008   10.211153    5.305233
C       1.386586    9.248709    2.756259
H       2.202165    8.842159    2.487422
C       0.861036   10.258267    1.960610
C       1.651475   10.641704    0.677976
C       0.757450   10.645260   -0.580217
H       0.092892   11.360870   -0.505993
H       0.299921    9.781490   -0.658063
H       1.312430   10.794901   -1.374056
C       2.362739   12.002697    0.842718
H       2.952102   12.157969    0.075130
H       2.893204   11.997956    1.666428
H       1.692937   12.718011    0.890693
C       2.775037    9.624441    0.372932
H       2.387677    8.729558    0.269742
H       3.420388    9.618515    1.110650
H       3.230971    9.879275   -0.457114
C       2.917033    7.877344    4.911482
H       3.344848    7.843564    4.030746
H       3.288527    7.173883    5.482648
H       3.082887    8.750300    5.321527
C       1.133236    6.345671    4.049755
H       1.514919    6.370858    3.147295
H       0.165059    6.204920    3.990919
H       1.540088    5.612282    4.556653
Br      2.892292   -0.525077    6.141072
P       2.682446    2.500340    5.971533
C       4.527114    7.229295   10.691027
H       4.990685    7.917644   11.211503
H       3.576226    7.455386   10.622234
H       4.623391    6.361969   11.138184
C       5.140591    7.151066    9.279859
C       4.508305    6.014979    8.455244
C       3.283197    5.451973    8.782917
H       2.834897    5.772294    9.555937
C       2.673435    4.439155    8.039768
C       3.364623    3.944599    6.907394
C       3.383282    1.206018    6.789721
C       4.273552    1.225575    7.873216
C       5.039058    1.321286    8.796495
C       5.931829    1.501745    9.896283
C       6.529960    0.413661   10.528096
H       6.354629   -0.471147   10.230293
C       7.381633    0.635901   11.593487
H       7.792126   -0.103712   12.025256
C       7.645040    1.913924   12.037928
H       8.235997    2.050527   12.769310
C       6.196498    2.784510   10.358828
H       5.784777    3.529159    9.938827
C       7.054963    2.987784   11.426935
H       7.234111    3.869926   11.733789
C       1.286356    3.953784    8.542141
C       0.250426    3.842961    7.413387
H      -0.633400    3.662503    7.797181
H       0.222135    4.684803    6.912825
H       0.501155    3.111350    6.810540
C       1.410186    2.604940    9.273523
H       0.556541    2.385368    9.701671
H       1.642076    1.905331    8.629038
H       2.111267    2.666871    9.955120
C       0.674267    4.926303    9.564989
H       1.253946    4.978159   10.353397
H       0.591945    5.816742    9.161281
H      -0.211844    4.604797    9.831111
C       5.116750    5.567241    7.282137
H       5.932329    5.973791    7.013299
C       4.591200    4.557683    6.486487
C       5.381638    4.174246    5.203854
C       4.487614    4.170690    3.945660
H       3.823056    3.455080    4.019884
H       4.030085    5.034460    3.867815
H       5.042593    4.021049    3.151821
C       6.092903    2.813253    5.368596
H       6.682266    2.657981    4.601007
H       6.623368    2.817994    6.192305
H       5.423101    2.097939    5.416570
C       6.505201    5.191509    4.898810
H       6.117841    6.086392    4.795620
H       7.150552    5.197435    5.636528
H       6.961135    4.936675    4.068764
C       6.647197    6.938606    9.437359
H       7.075012    6.972386    8.556624
H       7.018691    7.642067   10.008525
H       6.813051    6.065650    9.847404
C       4.863400    8.470279    8.575632
H       5.245083    8.445092    7.673172
H       3.895222    8.611030    8.516796
H       5.270252    9.203668    9.082531
Br      8.298200   14.290873    7.436560
P       8.508046   17.316290    7.606099
C       6.663377   22.045245    2.886605
H       6.199807   22.733594    2.366129
H       7.614265   22.271336    2.955398
H       6.567101   21.177919    2.439448
C       6.049901   21.967016    4.297773
C       6.682187   20.830929    5.122388
C       7.907295   20.267923    4.794714
H       8.355595   20.588244    4.021695
C       8.517056   19.255105    5.537863
C       7.825869   18.760549    6.670238
C       7.807209   16.021968    6.787911
C       6.916940   16.041525    5.704416
C       6.151433   16.137236    4.781137
C       5.258662   16.317695    3.681349
C       4.660532   15.229611    3.049536
H       4.835862   14.344803    3.347339
C       3.808858   15.451851    1.984145
H       3.398366   14.712238    1.552376
C       3.545452   16.729874    1.539703
H       2.954495   16.866477    0.808322
C       4.993994   17.600460    3.218804
H       5.405715   18.345109    3.638805
C       4.135529   17.803734    2.150697
H       3.956381   18.685876    1.843842
C       9.904135   18.769734    5.035491
C      10.940066   18.658911    6.164245
H      11.823892   18.478453    5.780450
H      10.968357   19.500753    6.664807
H      10.689337   17.927300    6.767092
C       9.780306   17.420890    4.304109
H      10.633951   17.201318    3.875961
H       9.548415   16.721281    4.948594
H       9.079225   17.482821    3.622512
C      10.516225   19.742253    4.012643
H       9.936545   19.794109    3.224235
H      10.598546   20.632692    4.416351
H      11.402336   19.420747    3.746521
C       6.073742   20.383191    6.295495
H       5.258163   20.789741    6.564332
C       6.599292   19.373633    7.091145
C       5.808853   18.990196    8.373778
C       6.702878   18.986640    9.631972
H       7.367435   18.271030    9.557748
H       7.160407   19.850410    9.709817
H       6.147898   18.836999   10.425811
C       5.097589   17.629203    8.209036
H       4.508226   17.473931    8.976625
H       4.567123   17.633944    7.385327
H       5.767391   16.913889    8.161062
C       4.685290   20.007459    8.678822
H       5.072651   20.902342    8.782012
H       4.039940   20.013385    7.941104
H       4.229356   19.752625    9.508868
C       4.543294   21.754556    4.140273
H       4.115479   21.788336    5.021008
H       4.171801   22.458017    3.569107
H       4.377441   20.881600    3.730228
C       6.327091   23.286229    5.002000
H       5.945409   23.261042    5.904460
H       7.295269   23.426980    5.060836
H       5.920240   24.019618    4.495101
