24

C	-1.194172272	-0.672993319	-0.052928783
C	-1.218203258	0.714241662	-0.044096916
C	-0.035479121	1.446416429	0.004338958
C	1.17361306	0.750332876	0.032015886
C	1.190676335	-0.632161618	0.029527567
C	0.007753086	-1.369722373	-0.010288
H	-2.126836473	-1.222405306	-0.102686877
H	-2.171442987	1.223657682	-0.105255117
C	-0.034674837	2.929936452	0.017822292
H	2.095964388	1.314478922	0.053275635
H	2.140164922	-1.154856191	0.057514586
C	-1.081414647	5.040366881	0.466692035
H	-2.001545902	3.147738504	0.872238487
C	1.111305973	4.862487515	-0.427219175
C	0.062584574	5.665608132	-0.0035471
H	-1.921185237	5.621845281	0.825552045
H	2.030011478	5.308778858	-0.793218852
H	0.14805861	6.742846894	-0.035228541
N	1.072094346	3.536397804	-0.419681572
C	-1.132219806	3.658404052	0.482859427
C	0.043202663	-2.87233172	-0.002341168
H	0.715894572	-3.251589116	-0.772877276
H	0.404115292	-3.246001737	0.958029531
H	-0.946560917	-3.292155285	-0.176208272


