188
1(n=2)
C       6.018748    7.439212    4.579682
C       7.132213    6.661105    3.907409
C       8.475074    7.011466    3.741136
C       9.315949    6.129611    3.109996
C       8.855498    4.911853    2.639906
C       7.528082    4.542783    2.809008
C       6.657969    5.428039    3.455600
C       5.244548    5.293678    3.856265
C       4.318535    4.262155    3.676064
C       3.037951    4.407571    4.204698
C       2.690880    5.525834    4.916362
C       3.594740    6.556507    5.104834
C       4.872680    6.449358    4.555089
C       5.689789    8.793883    3.917203
C       5.221484    8.702041    2.434459
C       6.116086    9.391707    1.410489
C       7.473773    9.219928    1.143451
C       8.063070    9.961468    0.122311
C       7.326498   10.870535   -0.613076
C       5.974968   11.045716   -0.366279
C       5.367962   10.293971    0.641151
C       3.969521   10.253152    1.085561
C       2.848570   10.939417    0.622652
C       1.625030   10.721717    1.237034
C       1.511061    9.825406    2.285597
C       2.626156    9.126385    2.747853
C       3.859973    9.338133    2.143917
H       6.252544    7.627998    5.525739
H       8.789409    7.883115    4.104586
H      10.286437    6.301390    2.981592
H       9.466057    4.319981    2.198108
H       7.149674    3.741716    2.531089
H       4.634113    3.503607    3.183992
H       2.369652    3.758724    4.135055
H       1.759518    5.570055    5.301575
H       3.371754    7.381385    5.595382
H       4.981090    9.252243    4.452801
H       6.549559    9.379802    3.950065
H       5.175484    7.764061    2.202461
H       8.001663    8.554923    1.658375
H       8.987583    9.813501   -0.067467
H       7.769131   11.412234   -1.351510
H       5.445595   11.718374   -0.909712
H       2.940008   11.641839   -0.130581
H       0.858095   11.216644    0.922770
H       0.663205    9.685942    2.733489
H       2.527633    8.461381    3.508267
C       7.168389    3.187262    6.302041
C       6.054924    2.409155    6.974314
C       4.712063    2.759516    7.140586
C       3.871187    1.877661    7.771726
C       4.331638    0.659903    8.241817
C       5.659055    0.290833    8.072715
C       6.529168    1.176089    7.426123
C       7.942589    1.041728    7.025458
C       8.868601    0.010205    7.205659
C      10.149185    0.155621    6.677025
C      10.496257    1.273884    5.965360
C       9.592397    2.304557    5.776889
C       8.314457    2.197408    6.326634
C       7.497348    4.541933    6.964520
C       7.965652    4.450091    8.447264
C       7.071051    5.139757    9.471234
C       5.713364    4.967978    9.738271
C       5.124067    5.709518   10.759412
C       5.860639    6.618585   11.494799
C       7.212169    6.793766   11.248002
C       7.819174    6.042021   10.240572
C       9.217616    6.001202    9.796162
C      10.338566    6.687467   10.259071
C      11.562107    6.469767    9.644689
C      11.676075    5.573456    8.596126
C      10.560981    4.874435    8.133870
C       9.327164    5.086183    8.737806
H       6.934593    3.376048    5.355984
H       4.397727    3.631165    6.777137
H       2.900700    2.049440    7.900131
H       3.721080    0.068031    8.683615
H       6.037462   -0.510234    8.350634
H       8.553024   -0.748343    7.697731
H      10.817485   -0.493226    6.746668
H      11.427619    1.318105    5.580147
H       9.815383    3.129435    5.286341
H       8.206047    5.000293    6.428922
H       6.637578    5.127852    6.931657
H       8.011653    3.512111    8.679262
H       5.185474    4.302973    9.223348
H       4.199554    5.561551   10.949189
H       5.418006    7.160284   12.233233
H       7.741541    7.466424   11.791435
H      10.247129    7.389889   11.012303
H      12.329041    6.964694    9.958953
H      12.523932    5.433992    8.148234
H      10.659504    4.209431    7.373455
C       0.494926    1.064688   17.183764
C      -0.618539    1.842795   17.856037
C      -1.961400    1.492434   18.022309
C      -2.802276    2.374289   18.653449
C      -2.341825    3.592047   19.123540
C      -1.014408    3.961117   18.954438
C      -0.144295    3.075861   18.307846
C       1.269126    3.210222   17.907181
C       2.195138    4.241745   18.087382
C       3.475722    4.096329   17.558748
C       3.822794    2.978066   16.847083
C       2.918934    1.947393   16.658612
C       1.640994    2.054542   17.208356
C       0.823885   -0.289983   17.846243
C       1.292189   -0.198141   19.328987
C       0.397587   -0.887807   20.352957
C      -0.960099   -0.716028   20.619994
C      -1.549396   -1.457568   21.641135
C      -0.812824   -2.366635   22.376522
C       0.538706   -2.541816   22.129724
C       1.145711   -1.790071   21.122294
C       2.544153   -1.749252   20.677885
C       3.665103   -2.435517   21.140793
C       4.888643   -2.217817   20.526411
C       5.002612   -1.321506   19.477849
C       3.887517   -0.622485   19.015593
C       2.653700   -0.834233   19.619529
H       0.261130    0.875902   16.237707
H      -2.275736    0.620785   17.658860
H      -3.772764    2.202510   18.781854
H      -2.952384    4.183919   19.565338
H      -0.636001    4.762184   19.232357
H       1.879561    5.000293   18.579453
H       4.144021    4.745176   17.628391
H       4.754155    2.933846   16.461870
H       3.141920    1.122515   16.168064
H       1.532584   -0.748343   17.310645
H      -0.035885   -0.875902   17.813380
H       1.338189    0.739839   19.560985
H      -1.487989   -0.051023   20.105071
H      -2.473909   -1.309601   21.830912
H      -1.255457   -2.908334   23.114956
H       1.068078   -3.214474   22.673158
H       3.573665   -3.137939   21.894026
H       5.655578   -2.712744   20.840675
H       5.850469   -1.182042   19.029957
H       3.986041    0.042520   18.255178
C      -0.654716    5.316638   15.461405
C       0.458750    6.094745   14.789132
C       1.801610    5.744384   14.622859
C       2.642486    6.626239   13.991719
C       2.182035    7.843997   13.521629
C       0.854618    8.213067   13.690731
C      -0.015495    7.327811   14.337323
C      -1.428916    7.462172   14.737988
C      -2.354928    8.493695   14.557786
C      -3.635512    8.348279   15.086420
C      -3.982584    7.230016   15.798085
C      -3.078723    6.199343   15.986557
C      -1.800783    6.306492   15.436812
C      -0.983674    3.961967   14.798925
C      -1.451979    4.053809   13.316182
C      -0.557377    3.364143   12.292212
C       0.800309    3.535922   12.025174
C       1.389606    2.794382   11.004033
C       0.653034    1.885315   10.268647
C      -0.698496    1.710134   10.515444
C      -1.305501    2.461879   11.522874
C      -2.703943    2.502698   11.967283
C      -3.824893    1.816433   11.504375
C      -5.048433    2.034133   12.118757
C      -5.162402    2.930444   13.167320
C      -4.047307    3.629465   13.629575
C      -2.813490    3.417717   13.025640
H      -0.420920    5.127852   16.407462
H       2.115946    4.872735   14.986309
H       3.612974    6.454460   13.863315
H       2.792594    8.435869   13.079831
H       0.476211    9.014134   13.412811
H      -2.039351    9.252243   14.065715
H      -4.303811    8.997126   15.016777
H      -4.913945    7.185796   16.183298
H      -3.301710    5.374465   16.477105
H      -1.692374    3.503607   15.334524
H      -0.123904    3.376048   14.831788
H      -1.497979    4.991789   13.084183
H       1.328199    4.200927   12.540097
H       2.314119    2.942349   10.814256
H       1.095668    1.343616    9.530213
H      -1.227868    1.037476    9.972011
H      -3.733455    1.114011   10.751142
H      -5.815368    1.539206   11.804493
H      -6.010259    3.069908   13.615212
H      -4.145831    4.294470   14.389990
