264
I
S       2.959262   13.513342    2.469156
P       2.673992   10.336288    1.201447
C       1.987917   12.159238    3.019093
N       1.894345   10.946233    2.430637
C       2.135915    8.616052    1.149743
C       1.307962   12.530161    4.166658
C       2.237458   11.086947   -0.381757
C       1.572910   13.872039    4.601036
C       0.954507   14.567624    5.779096
H       1.123316   14.052131    6.582736
H      -0.006216   14.622147    5.654136
C       4.472649   10.393841    1.331221
C       2.423186   14.516405    3.781806
C       0.441437   11.612628    4.826766
C       1.131461   11.914985   -0.431971
H       0.657638   12.102512    0.346218
N       1.697821   16.620782    4.634970
C       2.774537   15.965402    3.901262
H       3.614471   16.067840    4.377026
H       2.869263   16.359732    3.020813
C       1.225120    8.161416    2.086023
H       0.934587    8.731983    2.761722
N      -0.259129   10.872434    5.344030
C       5.109759    9.484294    2.165814
H       4.627444    8.784303    2.546196
C       1.523718   15.975591    5.948766
H       0.921558   16.505678    6.494461
H       2.379631   15.927401    6.403894
C       1.965588   18.719928    3.388813
C       1.151960    6.022893    1.024898
H       0.811213    5.160434    0.973309
C       2.932983   10.810475   -1.557295
H       3.683001   10.260286   -1.537347
C       2.572931    7.754144    0.153620
H       3.198595    8.040804   -0.473471
C       2.065753    6.455499    0.099738
H       2.351647    5.876396   -0.570916
C       5.207607   11.425652    0.773833
H       4.793171   12.039176    0.210941
C       6.562910   11.547916    1.050119
H       7.054363   12.242950    0.672948
C       2.013993   19.888323    0.857521
H       2.033997   20.278247    0.013757
C       7.176242   10.647181    1.878980
H       8.082538   10.733923    2.066993
C       6.462592    9.618123    2.432700
H       6.888305    9.007353    2.988713
C       0.740970    6.861945    2.024575
H       0.136732    6.562067    2.664277
C       2.505577   11.354607   -2.753697
H       2.963948   11.160746   -3.538994
C       0.720993   12.470681   -1.645111
H      -0.015980   13.036016   -1.676064
C       1.414321   12.175760   -2.789236
H       1.138074   12.537596   -3.599754
C       3.011077   20.101459    1.728799
H       3.720529   20.649996    1.481173
C       1.938534   18.059040    4.741587
H       2.785437   18.210218    5.188691
H       1.239404   18.460805    5.281550
C       0.931405   18.524140    2.469386
H       0.200769   17.998183    2.703255
C       3.010117   19.532269    2.979542
H       3.720415   19.694462    3.557337
C       0.984785   19.099939    1.219789
H       0.296144   18.942702    0.615627
S       4.751480   27.281842    3.262937
P       5.036751   24.104788    4.530646
C       5.722826   25.927738    2.713000
N       5.816397   24.714733    3.301456
C       5.574827   22.384552    4.582350
C       6.402780   26.298661    1.565435
C       5.473285   24.855447    6.113850
C       6.137832   27.640539    1.131057
C       6.756236   28.336124   -0.047003
H       6.587427   27.820631   -0.850643
H       7.716959   28.390647    0.077956
C       3.238094   24.162341    4.400872
C       5.287557   28.284905    1.950287
C       7.269306   25.381128    0.905327
C       6.579282   25.683485    6.164063
H       7.053105   25.871011    5.385875
N       6.012922   30.389282    1.097123
C       4.936206   29.733902    1.830830
H       4.096272   29.836339    1.355067
H       4.841480   30.128232    2.711280
C       6.485622   21.929916    3.646070
H       6.776156   22.500483    2.970371
N       7.969872   24.640934    0.388063
C       2.600984   23.252794    3.566279
H       3.083299   22.552803    3.185897
C       6.187025   29.744091   -0.216673
H       6.789184   30.274178   -0.762368
H       5.331112   29.695901   -0.671801
C       5.745155   32.488428    2.343280
C       6.558782   19.791393    4.707195
H       6.899529   18.928934    4.758784
C       4.777760   24.578975    7.289388
H       4.027742   24.028786    7.269440
C       5.137812   21.522644    5.578473
H       4.512148   21.809304    6.205564
C       5.644989   20.223999    5.632355
H       5.359096   19.644896    6.303009
C       2.503136   25.194152    4.958260
H       2.917572   25.807676    5.521152
C       1.147833   25.316416    4.681974
H       0.656380   26.011450    5.059145
C       5.696749   33.656823    4.874572
H       5.676746   34.046747    5.718336
C       0.534500   24.415681    3.853113
H      -0.371795   24.502423    3.665100
C       1.248151   23.386623    3.299393
H       0.822438   22.775853    2.743380
C       6.969773   20.630445    3.707518
H       7.574011   20.330567    3.067816
C       5.205165   25.123107    8.485790
H       4.746795   24.929246    9.271087
C       6.989750   26.239181    7.377204
H       7.726723   26.804516    7.408157
C       6.296421   25.944260    8.521329
H       6.572669   26.306096    9.331847
C       4.699666   33.869959    4.003294
H       3.990213   34.418496    4.250920
C       5.772209   31.827540    0.990506
H       4.925306   31.978718    0.543402
H       6.471339   32.229305    0.450543
C       6.779337   32.292640    3.262707
H       7.509974   31.766683    3.028838
C       4.700625   33.300769    2.752551
H       3.990328   33.462962    2.174756
C       6.725958   32.868439    4.512304
H       7.414598   32.711202    5.116466
S       3.536223   14.023658    8.995030
P       3.821493   17.200712   10.262739
C       4.507568   15.377762    8.445093
N       4.601140   16.590767    9.033549
C       4.359570   18.920948   10.314443
C       5.187523   15.006839    7.297528
C       4.258027   16.450053   11.845943
C       4.922575   13.664961    6.863150
C       5.540979   12.969376    5.685090
H       5.372170   13.484869    4.881450
H       6.501701   12.914853    5.810049
C       2.022836   17.143159   10.132965
C       4.072300   13.020595    7.682380
C       6.054048   15.924372    6.637420
C       5.364024   15.622015   11.896156
H       5.837847   15.434488   11.117968
N       4.797665   10.916218    6.829216
C       3.720948   11.571598    7.562923
H       2.881014   11.469160    7.087160
H       3.626223   11.177268    8.443373
C       5.270365   19.375584    9.378163
H       5.560898   18.805017    8.702464
N       6.754614   16.664566    6.120156
C       1.385727   18.052706    9.298372
H       1.868041   18.752697    8.917990
C       4.971767   11.561409    5.515420
H       5.573927   11.031322    4.969725
H       4.115855   11.609599    5.060292
C       4.529897    8.817072    8.075373
C       5.343525   21.514107   10.439288
H       5.684272   22.376566   10.490877
C       3.562502   16.726525   13.021481
H       2.812485   17.276714   13.001533
C       3.922555   19.782856   11.310566
H       3.296890   19.496196   11.937657
C       4.429732   21.081501   11.364448
H       4.143838   21.660604   12.035102
C       1.287878   16.111348   10.690353
H       1.702315   15.497824   11.253245
C      -0.067425   15.989084   10.414066
H      -0.558877   15.294050   10.791238
C       4.481492    7.648677   10.606665
H       4.461489    7.258753   11.450429
C      -0.680757   16.889819    9.585206
H      -1.587053   16.803077    9.397193
C       0.032894   17.918877    9.031486
H      -0.392820   18.529647    8.475473
C       5.754516   20.675055    9.439611
H       6.358753   20.974933    8.799909
C       3.989908   16.182393   14.217883
H       3.531537   16.376254   15.003180
C       5.774492   15.066319   13.109297
H       6.511466   14.500984   13.140250
C       5.081164   15.361240   14.253422
H       5.357412   14.999404   15.063940
C       3.484408    7.435541    9.735387
H       2.774956    6.887004    9.983013
C       4.556951    9.477960    6.722599
H       3.710048    9.326782    6.275495
H       5.256082    9.076195    6.182635
C       5.564080    9.012860    8.994800
H       6.294716    9.538817    8.760931
C       3.485368    8.004731    8.484644
H       2.775070    7.842538    7.906849
C       5.510700    8.437061   10.244397
H       6.199341    8.594298   10.848559
S       1.744005    0.255158    8.201249
P       1.458735    3.432212    6.933540
C       0.772659    1.609262    8.751186
N       0.679088    2.822267    8.162730
C       0.920658    5.152448    6.881836
C       0.092705    1.238339    9.898751
C       1.022200    2.681553    5.350336
C       0.357653   -0.103539   10.333129
C      -0.260751   -0.799124   11.511189
H      -0.091942   -0.283631   12.314829
H      -1.221474   -0.853647   11.386229
C       3.257391    3.374659    7.063314
C       1.207928   -0.747905    9.513899
C      -0.773820    2.155872   10.558859
C      -0.083797    1.853515    5.300122
H      -0.557620    1.665989    6.078311
N       0.482563   -2.852282   10.367063
C       1.559279   -2.196902    9.633355
H       2.399213   -2.299339   10.109119
H       1.654005   -2.591232    8.752906
C       0.009863    5.607084    7.818116
H      -0.280671    5.036517    8.493815
N      -1.474386    2.896066   11.076123
C       3.894501    4.284206    7.897907
H       3.412187    4.984197    8.278289
C       0.308460   -2.207091   11.680859
H      -0.293699   -2.737178   12.226554
H       1.164373   -2.158901   12.135987
C       0.750331   -4.951428    9.120906
C      -0.063297    7.745607    6.756991
H      -0.404044    8.608066    6.705402
C       1.717725    2.958025    4.174798
H       2.467743    3.508214    4.194746
C       1.357673    6.014356    5.885713
H       1.983337    5.727696    5.258622
C       0.850496    7.313001    5.831831
H       1.136390    7.892104    5.161177
C       3.992350    2.342848    6.505926
H       3.577913    1.729324    5.943034
C       5.347653    2.220584    6.782212
H       5.839105    1.525550    6.405041
C       0.798736   -6.119823    6.589614
H       0.818739   -6.509747    5.745850
C       5.960985    3.121319    7.611073
H       6.867280    3.034577    7.799086
C       5.247334    4.150377    8.164793
H       5.673048    4.761147    8.720806
C      -0.474288    6.906555    7.756668
H      -1.078525    7.206433    8.396370
C       1.290320    2.413893    2.978396
H       1.748691    2.607754    2.193099
C      -0.494264    1.297819    4.086982
H      -1.231238    0.732484    4.056029
C       0.199064    1.592740    2.942857
H      -0.077184    1.230904    2.132339
C       1.795819   -6.332959    7.460892
H       2.505272   -6.881496    7.213266
C       0.723276   -4.290540   10.473680
H       1.570179   -4.441718   10.920784
H       0.024146   -4.692305   11.013643
C      -0.283852   -4.755640    8.201479
H      -1.014489   -4.229683    8.435348
C       1.794860   -5.763769    8.711635
H       2.505158   -5.925962    9.289430
C      -0.230472   -5.331439    6.951882
H      -0.919113   -5.174202    6.347720
