64
Cl-A
Cl      3.327852   11.228899    7.327786
Cl      0.151407   -0.473850   15.972901
N       1.496194    4.725003   11.888485
N       1.949438    5.979605   11.428466
N      -0.187448   -1.217660   16.226145
N       3.423645   11.993310    6.960700
C       0.630217    0.971144   15.116754
C       0.420862    1.095468   13.763414
H       0.030157    0.375102   13.282484
C       0.764441    2.232850   13.103588
H       0.588717    2.313838   12.171932
C       1.396975    3.317661   13.816850
C       1.591957    3.152844   15.180646
H       1.991857    3.856160   15.680162
C       1.221296    1.994859   15.835825
H       1.370563    1.901794   16.769804
C       1.752755    4.575105   13.159347
H       2.165426    5.274869   13.651894
C       0.174056   -0.260014   15.721982
C       2.808003    9.789588    8.169065
C       3.018376    9.619087    9.586064
H       3.420386   10.312457   10.094874
C       2.627363    8.427712   10.206394
H       2.749407    8.336779   11.142696
C       2.079764    7.395472    9.514041
C       1.821047    7.529742    8.140952
H       1.394270    6.826426    7.664669
C       2.191130    8.696251    7.476480
H       2.031528    8.769424    6.542500
C       1.681283    6.190600   10.220334
H       1.193264    5.528488    9.744051
C       3.152399   11.027139    7.506683
Cl      3.561248   -4.124699   -4.288869
Cl      0.384803    7.578050    4.356246
N       1.729590    2.379197    0.271830
N       2.182834    1.124595   -0.188190
N       0.045948    8.321860    4.609489
N       3.657040   -4.889110   -4.655956
C       0.863612    6.133056    3.500098
C       0.654257    6.008732    2.146758
H       0.263553    6.729098    1.665828
C       0.997836    4.871350    1.486932
H       0.822112    4.790362    0.555276
C       1.630370    3.786539    2.200195
C       1.825353    3.951356    3.563990
H       2.225253    3.248040    4.063506
C       1.454692    5.109341    4.219169
H       1.603958    5.202406    5.153148
C       1.986150    2.529095    1.542692
H       2.398821    1.829331    2.035238
C       0.407451    7.364214    4.105326
C       3.041398   -2.685388   -3.447591
C       3.251771   -2.514887   -2.030591
H       3.653781   -3.208257   -1.521782
C       2.860758   -1.323512   -1.410262
H       2.982802   -1.232579   -0.473960
C       2.313160   -0.291272   -2.102615
C       2.054442   -0.425542   -3.475703
H       1.627665    0.277774   -3.951986
C       2.424525   -1.592051   -4.140176
H       2.264924   -1.665224   -5.074155
C       1.914678    0.913600   -1.396322
H       1.426659    1.575712   -1.872605
C       3.385794   -3.922939   -4.109973
