72
BAMHEC
O       5.127364    5.208972    7.126483
C       5.967216    4.539888    6.155585
C       5.904513    5.254737    4.825857
C       6.343408    6.680775    5.039723
O       6.937384    7.307755    4.180679
C       5.936074    7.300433    6.306812
C       5.303768    6.554463    7.230284
C       4.712490    7.041403    8.525114
C       3.289674    6.500461    8.639653
O       2.956400    5.753576    9.525542
C       2.322728    6.983739    7.604326
C       1.088396    6.228617    7.479944
C       5.536537    3.094629    6.172587
C       4.530661    5.228194    4.177995
C       6.174996    8.783219    6.466988
C       5.584324    6.657892    9.707194
H       6.737835    4.567347    6.496518
H       6.590130    4.805325    4.259425
H       4.628456    7.953957    8.438314
H       2.181801    8.036334    7.677703
H       2.728677    6.992892    6.818659
H       0.543796    6.699996    6.773917
H       0.708182    5.876226    8.241450
H       1.304476    5.272128    7.230284
H       4.646650    3.020490    5.888029
H       6.040287    2.681829    5.530094
H       5.505207    2.690982    6.970782
H       4.568176    5.720625    3.391433
H       3.854599    5.555871    4.724740
H       4.257716    4.246992    3.973077
H       5.887553    9.253683    7.257129
H       6.321391    9.171306    5.682216
H       7.113520    8.933328    6.460724
H       5.192037    6.965433   10.496440
H       6.441269    7.075269    9.637396
H       5.675297    5.839614    9.691086
O       2.173012    0.632472    1.821888
C       1.333160   -0.036612    2.792787
C       1.395863    0.678237    4.122515
C       0.956968    2.104275    3.908649
O       0.362992    2.731255    4.767692
C       1.364302    2.723933    2.641559
C       1.996608    1.977963    1.718087
C       2.587886    2.464903    0.423258
C       4.010702    1.923961    0.308719
O       4.343976    1.177076   -0.577170
C       4.977648    2.407239    1.344045
C       6.211980    1.652116    1.468428
C       1.763839   -1.481871    2.775785
C       2.769715    0.651694    4.770377
C       1.125380    4.206719    2.481383
C       1.716052    2.081392   -0.758822
H       0.562541   -0.009153    2.451854
H       0.710246    0.228825    4.688947
H       2.671920    3.377457    0.510057
H       5.118575    3.459834    1.270669
H       4.571698    2.416392    2.129712
H       6.756580    2.123496    2.174454
H       6.592194    1.299726    0.706921
H       5.995900    0.695628    1.718087
H       2.653726   -1.556010    3.060343
H       1.260089   -1.894671    3.418278
H       1.795169   -1.885518    1.977590
H       2.732199    1.144125    5.556939
H       3.445777    0.979371    4.223631
H       3.042660   -0.329508    4.975295
H       1.412823    4.677183    1.691242
H       0.978985    4.594806    3.266156
H       0.186856    4.356828    2.487647
H       2.108339    2.388933   -1.548068
H       0.859107    2.498769   -0.689025
H       1.625079    1.263114   -0.742715
