156
sarpong117
C       2.124413    2.645213    6.652242
C       1.590372    3.890730    5.941079
C       2.626700    4.623529    5.184647
H       2.447356    5.494182    4.849389
C       3.810951    4.055791    4.975704
H       4.486051    4.514698    4.489183
C       4.067718    2.674839    5.521732
C       4.531014    2.757067    7.023156
H       4.803441    1.837440    7.305114
C       3.189792    3.069656    7.697568
H       3.116471    4.035234    7.905051
H       3.086908    2.552706    8.535411
C       1.245627    0.735218    7.918924
C      -0.007844    0.120924    8.483084
H       0.146110   -0.829539    8.663186
H      -0.736648    0.215245    7.835687
H      -0.248916    0.577412    9.315450
C       4.994514    1.876136    4.701534
C       5.703778    3.679113    7.277003
C       6.987734    3.234717    6.998209
H       7.105582    2.358623    6.651633
C       8.106661    4.029188    7.210317
H       8.973809    3.701484    7.005754
C       7.942506    5.312191    7.725678
C       6.667404    5.766866    8.020171
H       6.551621    6.638123    8.380863
C       5.561227    4.969976    7.795286
H       4.693191    5.303122    7.995102
C      10.296638    5.711241    7.822301
H      10.423773    4.923421    8.391815
H      10.928249    6.411995    8.088805
H      10.455713    5.466974    6.886497
N       1.053502    1.845300    7.141075
H       0.230504    2.075660    6.933956
N       5.724354    1.217100    4.113644
O       2.843378    1.942039    5.605212
O       2.357948    0.304728    8.170581
O       0.427126    4.240805    6.013972
O       8.956443    6.194332    7.968087
C      16.277706   -0.377887   11.601417
C      16.811747    0.867630   12.312579
C      15.775419    1.600429   13.069011
H      15.954763    2.471082   13.404270
C      14.591168    1.032691   13.277955
H      13.916068    1.491598   13.764475
C      14.334401   -0.348261   12.731927
C      13.871105   -0.266033   11.230503
H      13.598678   -1.185660   10.948544
C      15.212327    0.046556   10.556091
H      15.285648    1.012134   10.348607
H      15.315211   -0.470394    9.718248
C      17.156492   -2.287882   10.334735
C      18.409963   -2.902176    9.770575
H      18.256009   -3.852639    9.590472
H      19.138767   -2.807855   10.417971
H      18.651035   -2.445688    8.938208
C      13.407605   -1.146964   13.552124
C      12.698341    0.656013   10.976655
C      11.414385    0.211617   11.255449
H      11.296537   -0.664477   11.602025
C      10.295458    1.006088   11.043342
H       9.428310    0.678384   11.247904
C      10.459613    2.289091   10.527980
C      11.734715    2.743766   10.233488
H      11.850498    3.615023    9.872795
C      12.840892    1.946876   10.458373
H      13.708928    2.280022   10.258556
C       8.105481    2.688141   10.431357
H       7.978346    1.900321    9.861843
H       7.473870    3.388895   10.164854
H       7.946406    2.443874   11.367162
N      17.348617   -1.177800   11.112584
H      18.171615   -0.947440   11.319702
N      12.677765   -1.806000   14.140014
O      15.558741   -1.081061   12.648447
O      16.044171   -2.718372   10.083078
O      17.974993    1.217705   12.239686
O       9.445676    3.171232   10.285571
C      16.978700    3.400988    5.516864
C      17.512741    2.155470    6.228027
C      16.476412    1.422671    6.984458
H      16.655757    0.552018    7.319717
C      15.292162    1.990409    7.193402
H      14.617061    1.531502    7.679923
C      15.035394    3.371361    6.647374
C      14.572098    3.289133    5.145950
H      14.299672    4.208760    4.863992
C      15.913321    2.976544    4.471538
H      15.986642    2.010966    4.264055
H      16.016204    3.493494    3.633695
C      17.857485    5.310982    4.250182
C      19.110957    5.925276    3.686022
H      18.957003    6.875739    3.505919
H      19.839761    5.830955    4.333419
H      19.352029    5.468788    2.853655
C      14.108599    4.170064    7.467572
C      13.399335    2.367087    4.892102
C      12.115379    2.811483    5.170896
H      11.997531    3.687577    5.517472
C      10.996451    2.017012    4.958789
H      10.129304    2.344716    5.163352
C      11.160607    0.734009    4.443427
C      12.435708    0.279334    4.148935
H      12.551492   -0.591923    3.788243
C      13.541886    1.076224    4.373820
H      14.409922    0.743078    4.174003
C       8.806475    0.334959    4.346805
H       8.679340    1.122779    3.777290
H       8.174864   -0.365795    4.080301
H       8.647399    0.579226    5.282609
N      18.049610    4.200900    5.028031
H      18.872609    3.970540    5.235149
N      13.378759    4.829100    8.055461
O      16.259734    4.104161    6.563894
O      16.745164    5.741472    3.998525
O      18.675986    1.805395    6.155134
O      10.146670   -0.148132    4.201019
C       2.825406    6.424087    0.567689
C       2.291365    5.178570   -0.143474
C       3.327694    4.445771   -0.899905
H       3.148349    3.575118   -1.235164
C       4.511945    5.013509   -1.108849
H       5.187045    4.554602   -1.595370
C       4.768712    6.394461   -0.562821
C       5.232008    6.312233    0.938603
H       5.504435    7.231860    1.220561
C       3.890786    5.999644    1.613015
H       3.817464    5.034066    1.820498
H       3.787902    6.516594    2.450858
C       1.946621    8.334082    1.834371
C       0.693149    8.948376    2.398531
H       0.847103    9.898839    2.578633
H      -0.035655    8.854055    1.751134
H       0.452077    8.491888    3.230898
C       5.695508    7.193164   -1.383019
C       6.404771    5.390187    1.192451
C       7.688727    5.834583    0.913656
H       7.806575    6.710677    0.567080
C       8.807655    5.040112    1.125764
H       9.674802    5.367816    0.921201
C       8.643500    3.757109    1.641126
C       7.368398    3.302434    1.935618
H       7.252615    2.431177    2.296310
C       6.262220    4.099324    1.710733
H       5.394184    3.766178    1.910550
C      10.997631    3.358059    1.737748
H      11.124766    4.145879    2.307262
H      11.629243    2.657305    2.004252
H      11.156707    3.602326    0.801944
N       1.754496    7.224000    1.056522
H       0.931497    6.993640    0.849404
N       6.425347    7.852200   -1.970908
O       3.544372    7.127261   -0.479341
O       3.058942    8.764572    2.086028
O       1.128120    4.828495   -0.070581
O       9.657436    2.874968    1.883534
