104
yf10962s
O      -1.933491    5.376806    0.422141
O      -1.280637    7.246195   -0.535292
O      -1.250701    5.773589    3.117639
H      -1.660447    6.180204    3.699714
C      -2.036803    6.681677    0.212158
C      -3.178671    7.243592    0.981912
H      -2.863659    7.877808    1.645587
H      -3.799677    7.695612    0.389501
C      -3.834021    6.085057    1.637427
H      -4.670742    5.867868    1.197334
H      -4.011073    6.272748    2.572555
C      -2.838680    4.947923    1.494900
H      -3.312297    4.138452    1.212566
C      -1.995910    4.634719    2.724330
H      -2.599952    4.392948    3.458180
C      -1.043634    3.485149    2.498028
H      -0.439596    3.719112    1.776146
H      -1.553576    2.709804    2.213518
C      -0.221108    3.104562    3.713858
H       0.328273    3.860820    3.969536
H      -0.822302    2.915136    4.451516
C       0.674847    1.902936    3.490820
H       1.244914    2.079348    2.726506
H       0.119400    1.139448    3.272678
C       1.552583    1.542882    4.679451
H       2.122839    2.299140    4.886713
H       0.984906    1.382376    5.449204
C       2.421421    0.328242    4.455324
H       2.981825    0.485856    3.679587
H       1.849484   -0.428016    4.254046
C       3.310353   -0.033547    5.631987
H       3.890433    0.720108    5.826193
H       2.750865   -0.182196    6.410445
C       4.165758   -1.257731    5.413845
H       3.585016   -2.009940    5.223990
H       4.720720   -1.110528    4.631579
C       5.058257   -1.619520    6.575819
H       4.505583   -1.749660    7.361893
H       5.651416   -0.873384    6.755338
C       5.895650   -2.859610    6.362029
H       6.446798   -2.727156    5.575411
H       5.301270   -3.603432    6.180879
C       6.793136   -3.232099    7.520196
H       7.405886   -2.498688    7.687747
H       6.246717   -3.346044    8.313886
C       7.590848   -4.489541    7.298246
H       6.976671   -5.222952    7.137767
H       8.130248   -4.378488    6.499660
C       8.493172   -4.859138    8.441180
H       7.973563   -4.948212    9.243030
H       9.153050   -4.173156    8.562492
H       8.930518   -5.691456    8.246974
O       6.001813   19.836806    5.017816
O       5.348958   21.706195    5.975248
O       5.319022   20.233589    2.322317
H       5.728768   20.640204    1.740242
C       6.105125   21.141677    5.227798
C       7.246992   21.703592    4.458044
H       6.931981   22.337808    3.794370
H       7.867998   22.155612    5.050456
C       7.902343   20.545057    3.802530
H       8.739063   20.327868    4.242622
H       8.079395   20.732748    2.867401
C       6.907002   19.407923    3.945056
H       7.380619   18.598452    4.227390
C       6.064232   19.094719    2.715626
H       6.668273   18.852948    1.981776
C       5.111955   17.945149    2.941928
H       4.507917   18.179112    3.663811
H       5.621897   17.169804    3.226438
C       4.289430   17.564562    1.726098
H       3.740049   18.320820    1.470420
H       4.890624   17.375136    0.988440
C       3.393474   16.362936    1.949136
H       2.823408   16.539348    2.713450
H       3.948922   15.599448    2.167279
C       2.515739   16.002882    0.760506
H       1.945483   16.759140    0.553244
H       3.083416   15.842376   -0.009248
C       1.646900   14.788242    0.984632
H       1.086497   14.945856    1.760370
H       2.218837   14.031984    1.185911
C       0.757968   14.426453   -0.192030
H       0.177889   15.180108   -0.386237
H       1.317457   14.277804   -0.970488
C      -0.097437   13.202269    0.026112
H       0.483305   12.450060    0.215966
H      -0.652399   13.349472    0.808378
C      -0.989935   12.840480   -1.135863
H      -0.437261   12.710340   -1.921937
H      -1.583095   13.586616   -1.315381
C      -1.827329   11.600390   -0.922073
H      -2.378476   11.732844   -0.135455
H      -1.232949   10.856568   -0.740922
C      -2.724814   11.227901   -2.080239
H      -3.337565   11.961312   -2.247790
H      -2.178396   11.113956   -2.873929
C      -3.522527    9.970459   -1.858289
H      -2.908349    9.237048   -1.697810
H      -4.061926   10.081512   -1.059704
C      -4.424850    9.600862   -3.001224
H      -3.905241    9.511788   -3.803074
H      -5.084728   10.286844   -3.122535
H      -4.862197    8.768544   -2.807018
