68
BAGXUC
S       0.214897    7.708103    0.992617
O       1.002161    8.700877    1.801250
C       1.204074    4.412655    3.083754
C       1.994129    3.691864    2.185373
C       2.179369    4.197444    0.910946
C       1.600752    5.393981    0.501693
C      -2.454875    8.086139    1.082365
C      -3.724041    8.003594    1.638805
C      -3.873867    7.378883    2.866563
C      -2.784788    6.855548    3.544163
C      -0.246648    6.418884    3.697633
C       0.607228    5.608750    2.729248
C       0.825806    6.095529    1.433281
C      -1.385587    7.534053    1.756376
C      -1.495133    6.920687    3.002083
C       2.621886    2.381309    2.602703
C       1.814230    5.886446   -0.908253
C      -0.513150    5.716215    5.035781
H       1.109732    4.015631    4.020727
H       2.796320    3.692971    0.233346
H      -2.279006    8.563012    0.197446
H      -4.594972    8.501136    1.130829
H      -4.812990    7.312687    3.186067
H      -2.831916    6.356860    4.442544
H       0.320174    7.224612    3.886104
H       3.520343    2.212143    2.234734
H       2.826501    2.291333    3.688658
H       1.977011    1.621410    2.378332
H       2.521825    5.284272   -1.462898
H       2.356838    6.733599   -0.915433
H       0.919978    6.012318   -1.373150
H       0.425647    5.502269    5.474650
H      -1.091360    6.263427    5.618248
H      -1.063125    4.862447    4.873336
S       5.907338   -0.646151    7.982220
O       5.120074   -1.638925    7.173587
C       4.918161    2.649297    5.891083
C       4.128106    3.370088    6.789464
C       3.942866    2.864508    8.063891
C       4.521483    1.667971    8.473143
C       8.577110   -1.024187    7.892471
C       9.846277   -0.941643    7.336031
C       9.996102   -0.316931    6.108274
C       8.907024    0.206403    5.430674
C       6.368884    0.643067    5.277204
C       5.515007    1.453202    6.245589
C       5.296429    0.966423    7.541555
C       7.507822   -0.472101    7.218461
C       7.617368    0.141264    5.972754
C       3.500349    4.680643    6.372134
C       4.308005    1.175506    9.883090
C       6.635385    1.345737    3.939056
H       5.012504    3.046321    4.954110
H       3.325915    3.368981    8.741491
H       8.401241   -1.501060    8.777390
H      10.717207   -1.439184    7.844007
H      10.935225   -0.250735    5.788770
H       8.954151    0.705092    4.532293
H       5.802061   -0.162660    5.088732
H       2.601892    4.849809    6.740102
H       3.295734    4.770618    5.286179
H       4.145224    5.440542    6.596505
H       3.600410    1.777680   10.437735
H       3.765397    0.328353    9.890270
H       5.202257    1.049634   10.347987
H       5.696588    1.559682    3.500186
H       7.213595    0.798524    3.356589
H       7.185360    2.199505    4.101500
