116
Compound-A-Form-III
Cl      2.891144    9.423470    7.130832
Cl      4.987023    6.335003    3.279817
O       8.587556    2.649164    7.418135
N       7.597872    3.991708    8.935235
H       7.516108    4.223677    9.758095
N       6.949237    4.677350    7.938815
O       6.312410    4.984247    5.446991
H       6.771931    4.701984    6.063748
N       9.887816    0.429039   11.702895
C      10.056268    0.180648   10.415143
H      10.517692   -0.590186   10.178048
C       9.594537    0.986380    9.407876
H       9.743438    0.753385    8.519931
C       8.921695    2.121589    9.710056
C       8.374320    2.936559    8.578817
C       6.175512    5.638070    8.259591
H       6.072656    5.870039    9.153734
C       5.455697    6.371953    7.235278
C       4.639252    7.429156    7.596344
H       4.568545    7.666256    8.493587
C       3.933076    8.135326    6.654162
C       4.033905    7.804822    5.313722
H       3.563169    8.284155    4.670620
C       9.244596    1.532430   11.983380
H       9.109576    1.741818   12.879073
C       8.753992    2.403852   11.035000
H       8.312478    3.178792   11.296889
C       5.560052    6.009631    5.879341
C       4.840788    6.757883    4.952655
Cl      5.724996   14.555520   16.113796
Cl      3.629118   11.467053   19.964811
O       0.028585    7.781214   15.826492
N       1.018268    9.123758   14.309393
H       1.100033    9.355727   13.486533
N       1.666903    9.809400   15.305812
O       2.303731   10.116297   17.797636
H       1.844209    9.834034   17.180879
N      -1.271675    5.561089   11.541732
C      -1.440127    5.312698   12.829485
H      -1.901552    4.541864   13.066580
C      -0.978396    6.118430   13.836752
H      -1.127298    5.885435   14.724697
C      -0.305555    7.253639   13.534572
C       0.241820    8.068609   14.665810
C       2.440628   10.770120   14.985037
H       2.543484   11.002089   14.090893
C       3.160444   11.504003   16.009350
C       3.976888   12.561206   15.648283
H       4.047595   12.798306   14.751041
C       4.683064   13.267376   16.590465
C       4.582236   12.936872   17.930906
H       5.052971   13.416205   18.574007
C      -0.628456    6.664480   11.261247
H      -0.493436    6.873868   10.365554
C      -0.137851    7.535902   12.209628
H       0.303663    8.310842   11.947739
C       3.056089   11.141681   17.365286
C       3.775352   11.889933   18.291972
Cl      5.750149    0.840630    8.365586
Cl      3.654271    3.929097   12.216601
O       0.053738    7.614936    8.078283
N       1.043421    6.272392    6.561184
H       1.125186    6.040423    5.738324
N       1.692057    5.586750    7.557603
O       2.328884    5.279853   10.049427
H       1.869362    5.562116    9.432670
N      -1.246522    9.835061    3.793523
C      -1.414974   10.083452    5.081276
H      -1.876398   10.854286    5.318371
C      -0.953243    9.277720    6.088543
H      -1.102145    9.510715    6.976488
C      -0.280402    8.142511    5.786363
C       0.266974    7.327541    6.917601
C       2.465781    4.626030    7.236827
H       2.568637    4.394061    6.342684
C       3.185597    3.892147    8.261141
C       4.002041    2.834944    7.900074
H       4.072748    2.597844    7.002831
C       4.708217    2.128774    8.842256
C       4.607389    2.459278   10.182696
H       5.078124    1.979945   10.825798
C      -0.603302    8.731670    3.513038
H      -0.468282    8.522282    2.617345
C      -0.112698    7.860248    4.461419
H       0.328816    7.085308    4.199529
C       3.081242    4.254469    9.617077
C       3.800505    3.506217   10.543763
Cl      2.916298   -4.291420   -0.617377
Cl      5.012176   -1.202953   -4.468392
O       8.612709    2.482886   -0.330074
N       7.623026    1.140342    1.187026
H       7.541261    0.908373    2.009885
N       6.974390    0.454700    0.190606
O       6.337563    0.147803   -2.301218
H       6.797085    0.430066   -1.684461
N       9.912969    4.703011    3.954686
C      10.081421    4.951402    2.666934
H      10.542845    5.722236    2.429838
C       9.619690    4.145670    1.659666
H       9.768591    4.378665    0.771722
C       8.946848    3.010461    1.961847
C       8.399473    2.195491    0.830608
C       6.200666   -0.506020    0.511382
H       6.097810   -0.737989    1.405525
C       5.480850   -1.239903   -0.512931
C       4.664406   -2.297106   -0.151865
H       4.593698   -2.534206    0.745378
C       3.958230   -3.003276   -1.094047
C       4.059058   -2.672772   -2.434487
H       3.588323   -3.152105   -3.077589
C       9.269749    3.599620    4.235171
H       9.134729    3.390232    5.130864
C       8.779145    2.728198    3.286790
H       8.337631    1.953258    3.548680
C       5.585205   -0.877581   -1.868868
C       4.865941   -1.625833   -2.795554
