102
don1b
O       3.194071    3.893460    9.396401
O      -0.426494    4.986892   11.975901
N       1.431169    4.154854   10.876881
C       0.517688    6.078093   10.005100
C      -0.280155    7.171547    9.702312
H      -1.044233    7.387225   10.224310
C       0.086407    7.938077    8.600466
H      -0.434896    8.697078    8.368319
C       1.194797    7.618459    7.835613
H       1.410490    8.153249    7.080427
C       1.995389    6.530313    8.151340
H       2.764693    6.317509    7.635143
C       1.630373    5.767761    9.247683
C       0.386319    5.060583   11.084193
C       2.229709    4.519330    9.791245
O       2.786737    2.330554   13.810031
O       0.819211    0.187925   14.792159
H       1.371249   -0.323290   14.419623
O       1.706061    0.080112   12.134880
H       1.831518   -0.529848   12.698964
C       1.643041    2.934071   11.655118
H       2.451584    2.471812   11.292099
C       1.915977    3.284691   13.130244
H       2.063837    4.251783   13.339935
C       1.409291    2.453261   14.218854
H       1.249266    2.917802   15.090337
C       0.515023    1.279045   13.919933
H      -0.422686    1.563335   14.119214
C       0.541187    0.806510   12.477376
H      -0.252673    0.217395   12.324197
C       0.453798    1.980191   11.527072
H      -0.381470    2.479928   11.707020
H       0.409417    1.641718   10.599077
O       3.878569    7.145297    5.475322
O       7.499134    6.051864    2.895822
N       5.641471    6.883903    3.994842
C       6.554952    4.960663    4.866623
C       7.352795    3.867209    5.169411
H       8.116873    3.651531    4.647413
C       6.986234    3.100680    6.271257
H       7.507537    2.341678    6.503404
C       5.877843    3.420298    7.036110
H       5.662150    2.885507    7.791296
C       5.077251    4.508443    6.720383
H       4.307947    4.721248    7.236580
C       5.442267    5.270995    5.624039
C       6.686321    5.978173    3.787530
C       4.842931    6.519427    5.080478
O       4.285903    8.708203    1.061692
O       6.253429   10.850832    0.079564
H       5.701391   11.362046    0.452100
O       5.366579   10.958645    2.736843
H       5.241123   11.568604    2.172759
C       5.429599    8.104685    3.216605
H       4.621057    8.566944    3.579624
C       5.156664    7.754066    1.741479
H       5.008803    6.786974    1.531787
C       5.663349    8.585495    0.652869
H       5.823374    8.120955   -0.218614
C       6.557617    9.759712    0.951790
H       7.495326    9.475421    0.752509
C       6.531453   10.232247    2.394347
H       7.325313   10.821361    2.547526
C       6.618842    9.058565    3.344650
H       7.454110    8.558829    3.164703
H       6.663223    9.397038    4.272646
O       2.281477    8.103047   11.436355
O       1.772120    7.729718   14.507366
H       0.947429    7.572304   14.568340
O       4.330396    8.384739   13.296808
H       4.062278    8.124537   12.544298
C       3.158941   10.468385   11.655118
H       3.960575   10.035246   11.243023
C       1.974548    9.517324   11.324817
H       1.352755    9.794354   10.591641
C       1.418503    8.724985   12.397068
H       0.447469    8.504282   12.330146
C       1.967040    8.914072   13.784600
H       1.420487    9.623562   14.224803
C       3.414225    9.370073   13.817318
H       3.663688    9.552919   14.769108
C       3.518020   10.682352   13.039527
H       2.913510   11.351840   13.441063
H       4.443969   11.025725   13.093065
O       4.791163    2.935710    3.435368
O       5.300520    3.309038    0.364357
H       6.125212    3.466452    0.303383
O       2.742244    2.654018    1.574915
H       3.010362    2.914220    2.327425
C       3.913699    0.570372    3.216605
H       3.112065    1.003510    3.628700
C       5.098092    1.521432    3.546906
H       5.719885    1.244403    4.280082
C       5.654137    2.313771    2.474655
H       6.625172    2.534474    2.541577
C       5.105600    2.124685    1.087123
H       5.652153    1.415194    0.646920
C       3.658416    1.668683    1.054405
H       3.408952    1.485838    0.102615
C       3.554620    0.356404    1.832196
H       4.159130   -0.313084    1.430660
H       2.628672    0.013032    1.778658
