40
comment_line
H    -3.23039744    1.55878909   -0.14150561
C    -0.91203791    1.08384904    0.98916986
C     1.05608285   -3.51059062    1.45914207
H    -2.37313076    1.14799075    2.42870052
C     2.29134774   -2.99914919    1.15293740
H    -3.91977463   -2.08185681   -1.93355067
C     2.38329399   -1.84164490    0.39058663
C     1.23789216   -1.18425152   -0.06669072
H    -1.85216079   -2.82026642   -1.20852085
H    -0.95373905   -3.25236312    1.21401457
C     1.39719774   -0.02150962   -0.99785881
H     0.97647576   -4.34555846    1.93667891
C     2.05020049   -0.23604408   -2.21164313
C     2.29254302    0.80378081   -3.08066402
H     3.14979045   -3.46218555    1.52177945
C     1.90138850    2.08466246   -2.75103646
H     3.25629026   -1.50762941    0.14126320
C    -1.70525913    0.18875999    0.08983695
C     1.26277208    2.31572921   -1.55462214
H     2.39942435   -1.14662144   -2.44042153
H    -4.66198907    0.16750298   -1.38321506
C    -2.94964484    0.62472909   -0.36978152
C     0.99197439    1.27549658   -0.66557283
H     2.67780498    0.61267130   -3.95308616
C    -3.77719714   -0.19256353   -1.11354422
C     0.34030184    1.59545678    0.63727687
H     2.08504743    2.82719825   -3.36387493
C    -3.37597471   -1.46462831   -1.42644158
C     0.97188115    2.49299995    1.50437828
H     0.94681624    3.22568927   -1.27130148
C    -2.13907293   -1.91409948   -1.00164674
C     0.38909925    2.86932011    2.69679867
H     1.86156134    2.85427433    1.28785118
C    -1.29053660   -1.10793871   -0.23918238
C    -0.83636111    2.36139763    3.04671248
H     0.86767496    3.47788156    3.30439002
C    -0.02178664   -1.70214870    0.27284989
C    -1.48694959    1.47943425    2.20005421
H    -1.21468401    2.61378936    3.86777959
C    -0.08616462   -2.87035294    1.03196010
