224
2005sot1556
Si      5.338122    4.373892    5.200131
O       5.352040    7.649424    1.501445
O       4.159199    4.918323   -0.725292
H       4.277602    4.092177   -0.815169
O       8.164097    4.579327    0.751303
H       8.892146    4.828823    0.413391
O       5.802347    4.766449    3.683590
C       4.020013   11.013903    2.195848
H       3.142072   10.814251    2.498924
C       4.409860   12.320591    2.062309
H       3.802732   13.017307    2.280616
C       5.683315   12.634526    1.612224
H       5.957908   13.541910    1.539764
C       6.546141   11.615613    1.272222
H       7.412116   11.818019    0.938258
C       6.146218   10.277256    1.419231
H       6.746418    9.577786    1.189079
C       4.894806    9.972959    1.892772
C       4.460873    8.549234    2.133375
H       4.441350    8.367482    3.107398
H       3.547034    8.415674    1.776651
C       5.214744    6.296609    1.955478
H       4.263116    6.034997    2.118047
C       5.905635    5.418141    0.912014
H       5.762040    4.466696    1.184434
C       5.411871    5.555832   -0.517203
H       5.326219    6.516915   -0.738530
H       6.081349    5.162036   -1.131019
C       7.390073    5.727946    1.116620
H       7.654589    6.510030    0.552736
C       7.518552    6.091450    2.608310
H       8.092930    5.434664    3.074884
H       7.918475    6.991949    2.710264
C       6.115988    6.069419    3.180554
H       5.985619    6.777151    3.873797
C       4.043316    5.550324    5.788864
H       4.440720    6.438431    5.910559
H       3.679292    5.235012    6.642121
H       3.324084    5.604024    5.125581
C       6.774129    4.473581    6.369934
H       7.436678    3.792010    6.131189
H       6.460488    4.319367    7.285432
H       7.182869    5.361688    6.310015
C       4.712164    2.611998    5.033381
C       3.544514    2.561053    4.041708
H       3.215759    1.639900    3.971338
H       3.849338    2.866727    3.163136
H       2.822134    3.143486    4.356860
C       4.246112    2.099788    6.394319
H       3.498539    2.647798    6.711794
H       4.986127    2.154864    7.034610
H       3.955774    1.167620    6.310015
C       5.845804    1.708745    4.518965
H       6.571333    1.688092    5.176674
H       6.184636    2.062611    3.669424
H       5.503192    0.801362    4.382407
Si      4.108878    9.395208   16.812231
O       4.094960    6.119676   13.113545
O       5.287801    8.850777   10.886808
H       5.169398    9.676923   10.796931
O       1.282903    9.189773   12.363403
H       0.554854    8.940277   12.025491
O       3.644653    9.002651   15.295690
C       5.426987    2.755197   13.807948
H       6.304928    2.954849   14.111024
C       5.037140    1.448509   13.674409
H       5.644268    0.751793   13.892716
C       3.763685    1.134574   13.224324
H       3.489092    0.227190   13.151864
C       2.900859    2.153487   12.884322
H       2.034884    1.951081   12.550358
C       3.300782    3.491844   13.031331
H       2.700582    4.191314   12.801179
C       4.552194    3.796141   13.504872
C       4.986127    5.219866   13.745475
H       5.005650    5.401618   14.719498
H       5.899966    5.353426   13.388751
C       4.232256    7.472491   13.567578
H       5.183884    7.734103   13.730147
C       3.541365    8.350959   12.524114
H       3.684960    9.302404   12.796534
C       4.035129    8.213268   11.094897
H       4.120781    7.252185   10.873570
H       3.365651    8.607064   10.481081
C       2.056927    8.041154   12.728720
H       1.792411    7.259070   12.164836
C       1.928448    7.677650   14.220410
H       1.354070    8.334436   14.686984
H       1.528525    6.777151   14.322364
C       3.331012    7.699681   14.792654
H       3.461381    6.991949   15.485897
C       5.403684    8.218776   17.400964
H       5.006280    7.330669   17.522659
H       5.767708    8.534088   18.254221
H       6.122916    8.165076   16.737681
C       2.672871    9.295519   17.982034
H       2.010322    9.977090   17.743289
H       2.986512    9.449733   18.897532
H       2.264131    8.407412   17.922115
C       4.734836   11.157102   16.645481
C       5.902486   11.208047   15.653808
H       6.231241   12.129200   15.583438
H       5.597662   10.902373   14.775236
H       6.624866   10.625614   15.968960
C       5.200888   11.669312   18.006419
H       5.948461   11.121302   18.323894
H       4.460873   11.614236   18.646710
H       5.491226   12.601480   17.922115
C       3.601196   12.060355   16.131065
H       2.875667   12.081008   16.788774
H       3.262364   11.706489   15.281524
H       3.943808   12.967738   15.994507
Si      0.959878   11.258442    6.411969
O       0.945960   14.533974   10.110655
O       2.138801   11.802873   12.337392
H       2.020398   10.976727   12.427269
O      -1.866097   11.463877   10.860797
H      -2.594146   11.713373   11.198709
O       0.495653   11.650999    7.928510
C       2.277987   17.898453    9.416252
H       3.155928   17.698801    9.113176
C       1.888140   19.205141    9.549791
H       2.495268   19.901857    9.331484
C       0.614685   19.519076    9.999876
H       0.340092   20.426460   10.072336
C      -0.248141   18.500163   10.339878
H      -1.114116   18.702569   10.673842
C       0.151782   17.161806   10.192869
H      -0.448418   16.462336   10.423021
C       1.403194   16.857509    9.719328
C       1.837127   15.433784    9.478725
H       1.856650   15.252032    8.504702
H       2.750966   15.300224    9.835449
C       1.083256   13.181159    9.656622
H       2.034884   12.919547    9.494053
C       0.392365   12.302691   10.700086
H       0.535960   11.351246   10.427666
C       0.886129   12.440382   12.129303
H       0.971781   13.401465   12.350630
H       0.216651   12.046586   12.743119
C      -1.092073   12.612496   10.495480
H      -1.356589   13.394580   11.059364
C      -1.220552   12.976000    9.003790
H      -1.794930   12.319214    8.537216
H      -1.620475   13.876499    8.901836
C       0.182012   12.953969    8.431546
H       0.312381   13.661701    7.738303
C       2.254684   12.434874    5.823236
H       1.857280   13.322981    5.701541
H       2.618708   12.119562    4.969979
H       2.973916   12.488574    6.486519
C      -0.476129   11.358131    5.242166
H      -1.138678   10.676560    5.480911
H      -0.162488   11.203917    4.326668
H      -0.884869   12.246238    5.302085
C       1.585836    9.496548    6.578719
C       2.753486    9.445603    7.570392
H       3.082241    8.524450    7.640762
H       2.448662    9.751277    8.448964
H       3.475866   10.028036    7.255240
C       2.051888    8.984338    5.217781
H       2.799461    9.532348    4.900306
H       1.311873    9.039414    4.577490
H       2.342226    8.052170    5.302085
C       0.452196    8.593295    7.093135
H      -0.273333    8.572642    6.435426
H       0.113364    8.947161    7.942676
H       0.794808    7.685912    7.229693
Si      2.189122    2.510658   18.024069
O       2.203040   -0.764874   21.722755
O       1.010199    1.966227   23.949492
H       1.128602    2.792373   24.039369
O       5.015097    2.305223   22.472897
H       5.743146    2.055727   22.810809
O       2.653347    2.118101   19.540610
C       0.871013   -4.129353   21.028352
H      -0.006928   -3.929701   20.725276
C       1.260860   -5.436041   21.161891
H       0.653732   -6.132757   20.943584
C       2.534315   -5.749976   21.611976
H       2.808908   -6.657360   21.684436
C       3.397141   -4.731063   21.951978
H       4.263116   -4.933469   22.285942
C       2.997218   -3.392706   21.804969
H       3.597418   -2.693236   22.035121
C       1.745806   -3.088409   21.331428
C       1.311873   -1.664684   21.090825
H       1.292350   -1.482932   20.116802
H       0.398034   -1.531124   21.447549
C       2.065744    0.587941   21.268722
H       1.114116    0.849553   21.106153
C       2.756635    1.466409   22.312186
H       2.613040    2.417854   22.039766
C       2.262871    1.328718   23.741403
H       2.177219    0.367635   23.962730
H       2.932349    1.722514   24.355219
C       4.241073    1.156604   22.107580
H       4.505589    0.374520   22.671464
C       4.369552    0.793100   20.615890
H       4.943930    1.449886   20.149316
H       4.769475   -0.107399   20.513936
C       2.966988    0.815131   20.043646
H       2.836619    0.107399   19.350403
C       0.894316    1.334226   17.435336
H       1.291720    0.446119   17.313641
H       0.530292    1.649538   16.582079
H       0.175084    1.280526   18.098619
C       3.625129    2.410969   16.854266
H       4.287678    3.092540   17.093011
H       3.311488    2.565183   15.938768
H       4.033869    1.522862   16.914185
C       1.563164    4.272552   18.190819
C       0.395514    4.323497   19.182492
H       0.066759    5.244650   19.252862
H       0.700338    4.017823   20.061064
H      -0.326866    3.741064   18.867340
C       1.097112    4.784762   16.829881
H       0.349539    4.236752   16.512406
H       1.837127    4.729686   16.189590
H       0.806774    5.716930   16.914185
C       2.696804    5.175805   18.705235
H       3.422333    5.196458   18.047526
H       3.035636    4.821939   19.554776
H       2.354192    6.083188   18.841793
