232
gr0617
S       2.151675    8.343145   13.890455
C       0.424371   10.268898   14.707608
C       1.356951    9.294662   15.137083
C       1.574755    9.119594   16.473442
C      -0.240275   11.046682   15.643251
C      -0.024200   10.871614   16.991113
O       1.089018    7.558678   13.261197
C       6.655110    6.715410   15.409340
C       6.311983    8.043792   17.364986
C      -0.782191   11.678800   17.997695
N       3.177167    7.490522   14.705308
N       2.789096    9.289316   12.802387
N       5.370760    7.439739   15.329772
C       6.985273    6.779557   16.889496
C       4.463245    7.298080   14.354825
C       5.014669    8.053146   16.622991
O       4.186669   10.355764   14.297498
C       0.884179    9.908070   17.411001
C       3.821935   10.107193   13.165716
C       4.720807   11.142903    9.628681
C       4.856502    5.972372   11.012971
N       4.857366    6.938589   13.142325
C       4.033688   10.639080   10.688947
C       6.442492   11.879260   11.137596
C       4.540168   10.731292   11.994629
C       3.981830    6.269052   12.176772
C       5.956756   11.808430    9.887516
C       5.709566   11.366082   12.178690
C       5.861683    7.098957   11.034061
C       6.168509    7.224578   12.533390
H       4.521758   11.179654    8.544831
H       4.587272    8.833337   16.367798
H       4.321500    7.447089   17.184568
H       0.583057   10.356432   13.750109
H      -0.917022   11.725707   15.202463
H       2.185728    8.412638   16.790180
H       5.873351   11.595275   12.950786
H       6.497375    5.902879   15.010925
H       1.105094    9.676071   18.398794
H       4.383470    5.832451   10.147119
H       6.268941    8.195072   18.365050
H       6.427540    6.987635   10.130438
H       6.319934   12.259198    8.989069
H       6.750529    6.412983   12.702112
H       6.680348    6.005247   17.138745
H      -0.552979   11.617592   18.747935
H      -0.926443   12.632187   17.650472
H       7.358564   12.570446   11.264137
H       6.695041    9.029387   17.016037
H       3.743110    5.700281   12.501946
H      -1.772766   11.698445   17.974687
H       5.320026    5.095159   11.264137
H       3.374054    6.873907   11.743462
H       3.119691   10.106926   10.545150
H       7.317337    7.161634   14.887068
H       7.911197    6.825529   17.051124
H       6.482336    8.124644   12.769985
H       5.481218    7.926589   10.674376
S       2.169825    5.020855    4.303955
C       3.897129    3.095102    5.121108
C       2.964549    4.069338    5.550583
C       2.746745    4.244406    6.886942
C       4.561775    2.317318    6.056751
C       4.345700    2.492386    7.404613
O       3.232482    5.805322    3.674697
C      -2.333610    6.648590    5.822840
C      -1.990483    5.320208    7.778486
C       5.103692    1.685200    8.411195
N       1.144333    5.873478    5.118808
N       1.532404    4.074684    3.215887
N      -1.049260    5.924261    5.743272
C      -2.663773    6.584443    7.302996
C      -0.141745    6.065920    4.768325
C      -0.693169    5.310854    7.036491
O       0.134831    3.008236    4.710998
C       3.437321    3.455930    7.824501
C       0.499565    3.256807    3.579216
C      -0.399307    2.221097    0.042181
C      -0.535002    7.391628    1.426471
N      -0.535866    6.425411    3.555825
C       0.287812    2.724920    1.102447
C      -2.120992    1.484740    1.551096
C      -0.218668    2.632708    2.408129
C       0.339670    7.094948    2.590272
C      -1.635256    1.555570    0.301016
C      -1.388066    1.997918    2.592190
C      -1.540183    6.265043    1.447562
C      -1.847009    6.139422    2.946890
H      -0.200258    2.184346   -1.041669
H      -0.265772    4.530663    6.781298
H       0.000000    5.916911    7.598068
H       3.738443    3.007568    4.163609
H       5.238522    1.638293    5.615963
H       2.135772    4.951362    7.203680
H      -1.551851    1.768725    3.364286
H      -2.175875    7.461121    5.424425
H       3.216406    3.687929    8.812294
H      -0.061970    7.531549    0.560619
H      -1.947441    5.168928    8.778550
H      -2.106040    6.376365    0.543938
H      -1.998434    1.104802   -0.597431
H      -2.429029    6.951017    3.115612
H      -2.358848    7.358753    7.552245
H       4.874479    1.746408    9.161435
H       5.247943    0.731813    8.063972
H      -3.037064    0.793554    1.677638
H      -2.373541    4.334613    7.429537
H       0.578390    7.663719    2.915446
H       6.094266    1.665555    8.388187
H      -0.998526    8.268841    1.677638
H       0.947446    6.490093    2.156963
H       1.201809    3.257074    0.958650
H      -2.995837    6.202366    5.300568
H      -3.589697    6.538471    7.464624
H      -2.160836    5.239356    3.183485
H      -1.159718    5.437411    1.087876
S       6.473175   11.702855    5.282545
C       4.745871    9.777102    4.465392
C       5.678451   10.751338    4.035916
C       5.896255   10.926406    2.699558
C       4.081225    8.999318    3.529749
C       4.297300    9.174386    2.181887
O       5.410518   12.487322    5.911803
C      10.976610   13.330590    3.763660
C      10.633483   12.002208    1.808014
C       3.539309    8.367200    1.175305
N       7.498667   12.555478    4.467692
N       7.110596   10.756684    6.370613
N       9.692260   12.606261    3.843228
C      11.306773   13.266443    2.283504
C       8.784745   12.747920    4.818175
C       9.336169   11.992854    2.550009
O       8.508169    9.690236    4.875502
C       5.205679   10.137930    1.761999
C       8.143435    9.938807    6.007284
C       9.042307    8.903097    9.544319
C       9.178002   14.073628    8.160029
N       9.178866   13.107411    6.030675
C       8.355188    9.406920    8.484052
C      10.763992    8.166740    8.035404
C       8.861668    9.314708    7.178371
C       8.303330   13.776948    6.996228
C      10.278256    8.237570    9.285484
C      10.031066    8.679918    6.994310
C      10.183183   12.947043    8.138938
C      10.490009   12.821422    6.639610
H       8.843258    8.866346   10.628169
H       8.908772   11.212663    2.805202
H       8.643000   12.598911    1.988432
H       4.904557    9.689568    5.422891
H       3.404478    8.320293    3.970537
H       6.507228   11.633362    2.382820
H      10.194851    8.450725    6.222214
H      10.818875   14.143121    4.162075
H       5.426594   10.369929    0.774206
H       8.704970   14.213549    9.025881
H      10.590441   11.850928    0.807950
H      10.749040   13.058365    9.042562
H      10.641434    7.786802   10.183931
H      11.072029   13.633017    6.470887
H      11.001848   14.040753    2.034255
H       3.768521    8.428408    0.425065
H       3.395057    7.413813    1.522528
H      11.680064    7.475554    7.908862
H      11.016541   11.016613    2.156963
H       8.064610   14.345719    6.671054
H       2.548734    8.347555    1.198312
H       9.641526   14.950841    7.908862
H       7.695554   13.172093    7.429537
H       7.441191    9.939074    8.627850
H      11.638837   12.884366    4.285932
H      12.232697   13.220471    2.121876
H      10.803836   11.921356    6.403015
H       9.802718   12.119411    8.498624
S       6.491325    1.661145   14.869045
C       8.218629    3.586898   14.051892
C       7.286049    2.612662   13.622416
C       7.068245    2.437594   12.286058
C       8.883275    4.364682   13.116249
C       8.667200    4.189614   11.768387
O       7.553982    0.876678   15.498303
C       1.987890    0.033410   13.350160
C       2.331017    1.361792   11.394514
C       9.425192    4.996800   10.761805
N       5.465833    0.808522   14.054192
N       5.853904    2.607316   15.957113
N       3.272240    0.757739   13.429728
C       1.657727    0.097557   11.870004
C       4.179755    0.616080   14.404675
C       3.628331    1.371146   12.136509
O       4.456331    3.673764   14.462002
C       7.758821    3.226070   11.348499
C       4.821065    3.425193   15.593784
C       3.922193    4.460903   19.130819
C       3.786498   -0.709628   17.746529
N       3.785634    0.256589   15.617175
C       4.609312    3.957080   18.070552
C       2.200508    5.197260   17.621904
C       4.102832    4.049292   16.764871
C       4.661170   -0.412948   16.582728
C       2.686244    5.126430   18.871984
C       2.933434    4.684082   16.580810
C       2.781317    0.416957   17.725438
C       2.474491    0.542578   16.226110
H       4.121242    4.497654   20.214669
H       4.055728    2.151337   12.391702
H       4.321500    0.765089   11.574932
H       8.059943    3.674432   15.009391
H       9.560022    5.043707   13.557037
H       6.457272    1.730638   11.969320
H       2.769649    4.913275   15.808714
H       2.145625   -0.779121   13.748575
H       7.537906    2.994071   10.360706
H       4.259530   -0.849549   18.612381
H       2.374059    1.513072   10.394450
H       2.215460    0.305635   18.629062
H       2.323066    5.577198   19.770431
H       1.892471   -0.269017   16.057387
H       1.962652   -0.676753   11.620755
H       9.195979    4.935592   10.011565
H       9.569443    5.950187   11.109028
H       1.284436    5.888446   17.495362
H       1.947959    2.347387   11.743462
H       4.899890   -0.981719   16.257554
H      10.415766    5.016445   10.784812
H       3.322974   -1.586841   17.495362
H       5.268946    0.191907   17.016037
H       5.523309    3.424926   18.214350
H       1.325663    0.479634   13.872432
H       0.731803    0.143529   11.708376
H       2.160664    1.442644   15.989515
H       3.161782    1.244589   18.085124
