20
balloon_coor_conformers.xyz
C          0.98590        0.16661       -0.03167
C          0.77574       -1.10780       -0.86939
N         -0.51590       -1.24143       -1.33795
C         -0.83060       -2.21823       -2.36127
C         -0.56314       -1.65198       -3.74841
O         -0.27028       -0.50017       -4.03170
N          0.20371        1.27859       -0.62541
O          1.66377       -1.92809       -1.07428
O         -0.72926       -2.57161       -4.72153
H          0.37564        2.12229       -0.07759
H          0.58393        1.47195       -1.55567
C          0.53054       -0.05984        1.40472
H          2.04900        0.42827       -0.06401
H         -1.02260       -0.35766       -1.33779
H         -0.22698       -3.11920       -2.21504
H         -1.89476       -2.45082       -2.27333
H         -0.52300       -2.07936       -5.54427
H          1.08254       -0.88579        1.86682
H          0.69654        0.83666        2.01071
H         -0.53556       -0.30826        1.45449
