32
Cl-B
Cl      6.530916   -1.495854    1.284554
Cl     -3.248615    5.626255    9.937798
N       1.183927    2.518199    5.879826
N       2.129475    1.586136    5.411382
N      -3.765034    6.148398   10.337387
N       7.248004   -1.869957    0.996715
C      -2.084822    4.634046    9.081052
C      -1.580133    5.061706    7.854066
H      -1.891357    5.871168    7.465765
C      -0.626720    4.305238    7.206145
H      -0.275836    4.602180    6.375362
C      -0.167933    3.098627    7.762635
C      -0.680619    2.695971    8.999780
H      -0.369362    1.891428    9.398240
C      -1.635129    3.456224    9.649958
H      -1.981988    3.169038   10.486386
C       0.811478    2.268723    7.074078
H       1.183545    1.520741    7.526719
C      -3.032976    5.469108    9.782026
C       5.388136   -0.500306    2.161618
C       4.885295   -0.934734    3.405536
H       5.201864   -1.741832    3.793837
C       3.933571   -0.180629    4.053457
H       3.584256   -0.482121    4.883112
C       3.473218    1.018560    3.510512
C       3.979928    1.454859    2.292557
H       3.668054    2.271317    1.920058
C       4.935808    0.712407    1.615287
H       5.282191    1.021994    0.786761
C       2.487579    1.847650    4.208100
H       2.106477    2.593749    3.759973
C       6.422797   -1.273315    1.513697
