432
DECGEX10
C       8.484484    0.959153    1.828576
C       7.866811    1.842038    0.965082
C       7.554996    1.475620   -0.333472
C       7.899872    0.163313   -0.783991
C       8.581760   -0.668174    0.075086
C       8.841840   -0.305072    1.384682
C       8.748061    1.297385    3.290553
O       6.880971    2.231668   -1.245551
C       6.634325    3.577135   -0.912079
O       7.628802   -0.160826   -2.093586
C       6.617367   -1.114176   -2.254801
O       8.932551   -1.883488   -0.492479
C       9.742408   -2.743161    0.300346
C       9.347689    2.711659    3.438517
C      10.661721    2.896526    3.010083
C      11.214010    4.154119    3.169089
O      12.486974    4.560329    2.795866
C      12.551472    5.896677    3.261843
O      11.282727    6.325270    3.718987
C      10.509031    5.174618    3.718987
C       9.235035    5.039491    4.143005
C       8.635481    3.777753    4.014916
C       7.220076    3.635994    4.569230
C       6.599809    2.351044    4.059084
C       7.553462    1.156455    4.246800
C       6.575011    0.004145    4.023750
O       5.313922    0.429422    4.306428
C       5.305132    1.839551    4.635483
O       6.781061   -1.133243    3.741071
C       8.060634    0.984852    5.671234
H       7.652279    2.717462    1.265427
H       9.264347   -0.918532    1.976540
H       9.370112    0.630040    3.557772
H       6.188687    4.033085   -1.616567
H       7.466070    4.000754   -0.735405
H       6.093593    3.601176   -0.130297
H       6.401706   -1.185470   -3.177923
H       5.853764   -0.824026   -1.773365
H       6.896751   -1.961414   -1.927955
H       9.830295   -3.523250   -0.234093
H       9.326638   -2.969478    1.126297
H      10.601237   -2.375085    0.470394
H      11.157773    2.184415    2.625817
H      13.176401    5.948075    3.975164
H      12.836278    6.460397    2.550730
H       8.760416    5.773156    4.511811
H       6.694428    4.374633    4.284344
H       7.255103    3.617756    5.516645
H       6.422134    2.635391    3.171298
H       4.563164    2.275605    4.235758
H       5.277124    1.968046    5.576272
H       8.706479    1.643078    5.900910
H       8.473076    0.129324    5.657984
H       7.361128    0.988997    6.313886
C      19.474484    5.104153    1.828576
C      18.856811    5.987038    0.965082
C      18.544996    5.620620   -0.333472
C      18.889872    4.308313   -0.783991
C      19.571760    3.476826    0.075086
C      19.831840    3.839928    1.384682
C      19.738061    5.442385    3.290553
O      17.870971    6.376668   -1.245551
C      17.624325    7.722135   -0.912079
O      18.618802    3.984174   -2.093586
C      17.607367    3.030824   -2.254801
O      19.922551    2.261512   -0.492479
C      20.732408    1.401839    0.300346
C      20.337689    6.856659    3.438517
C      21.651721    7.041526    3.010083
C      22.204010    8.299119    3.169089
O      23.476974    8.705329    2.795866
C      23.541472   10.041677    3.261843
O      22.272727   10.470270    3.718987
C      21.499031    9.319618    3.718987
C      20.225035    9.184491    4.143005
C      19.625481    7.922753    4.014916
C      18.210076    7.780994    4.569230
C      17.589809    6.496044    4.059084
C      18.543462    5.301455    4.246800
C      17.565011    4.149145    4.023750
O      16.303922    4.574422    4.306428
C      16.295132    5.984551    4.635483
O      17.771061    3.011757    3.741071
C      19.050634    5.129852    5.671234
H      18.642279    6.862462    1.265427
H      20.254347    3.226468    1.976540
H      20.360112    4.775040    3.557772
H      17.178687    8.178085   -1.616567
H      18.456070    8.145754   -0.735405
H      17.083593    7.746176   -0.130297
H      17.391706    2.959530   -3.177923
H      16.843764    3.320974   -1.773365
H      17.886751    2.183586   -1.927955
H      20.820295    0.621750   -0.234093
H      20.316638    1.175522    1.126297
H      21.591237    1.769915    0.470394
H      22.147773    6.329415    2.625817
H      24.166401   10.093075    3.975164
H      23.826278   10.605397    2.550730
H      19.750416    9.918156    4.511811
H      17.684428    8.519633    4.284344
H      18.245103    7.762756    5.516645
H      17.412134    6.780391    3.171298
H      15.553164    6.420605    4.235758
H      16.267124    6.113046    5.576272
H      19.696479    5.788078    5.900910
H      19.463076    4.274324    5.657984
H      18.351128    5.133997    6.313886
C      12.315454    0.959153    9.213547
C      12.933127    1.842038   10.077041
C      13.244942    1.475620   11.375595
C      12.900065    0.163313   11.826114
C      12.218178   -0.668174   10.967036
C      11.958097   -0.305072    9.657441
C      12.051876    1.297385    7.751570
O      13.918966    2.231668   12.287674
C      14.165612    3.577135   11.954202
O      13.171136   -0.160826   13.135709
C      14.182571   -1.114176   13.296924
O      11.867387   -1.883488   11.534602
C      11.057529   -2.743161   10.741777
C      11.452249    2.711659    7.603606
C      10.138217    2.896526    8.032040
C       9.585927    4.154119    7.873034
O       8.312963    4.560329    8.246257
C       8.248466    5.896677    7.780280
O       9.517211    6.325270    7.323136
C      10.290907    5.174618    7.323136
C      11.564903    5.039491    6.899118
C      12.164456    3.777753    7.027207
C      13.579861    3.635994    6.472892
C      14.200128    2.351044    6.983039
C      13.246476    1.156455    6.795322
C      14.224926    0.004145    7.018373
O      15.486016    0.429422    6.735695
C      15.494806    1.839551    6.406640
O      14.018877   -1.133243    7.301052
C      12.739304    0.984852    5.370889
H      13.147659    2.717462    9.776696
H      11.535591   -0.918532    9.065583
H      11.429826    0.630040    7.484351
H      14.611250    4.033085   12.658690
H      13.333867    4.000754   11.777528
H      14.706345    3.601176   11.172420
H      14.398231   -1.185470   14.220046
H      14.946173   -0.824026   12.815488
H      13.903187   -1.961414   12.970078
H      10.969642   -3.523250   11.276216
H      11.473300   -2.969478    9.915826
H      10.198700   -2.375085   10.571728
H       9.642164    2.184415    8.416306
H       7.623536    5.948075    7.066959
H       7.963660    6.460397    8.491392
H      12.039521    5.773156    6.530311
H      14.105510    4.374633    6.757779
H      13.544835    3.617756    5.525478
H      14.377803    2.635391    7.870825
H      16.236773    2.275605    6.806365
H      15.522813    1.968046    5.465851
H      12.093459    1.643078    5.141212
H      12.326862    0.129324    5.384139
H      13.438809    0.988997    4.728237
C       1.325454    5.104153    9.213547
C       1.943127    5.987038   10.077041
C       2.254942    5.620620   11.375595
C       1.910065    4.308313   11.826114
C       1.228178    3.476826   10.967036
C       0.968097    3.839928    9.657441
C       1.061876    5.442385    7.751570
O       2.928966    6.376668   12.287674
C       3.175612    7.722135   11.954202
O       2.181136    3.984174   13.135709
C       3.192571    3.030824   13.296924
O       0.877387    2.261512   11.534602
C       0.067529    1.401839   10.741777
C       0.462249    6.856659    7.603606
C      -0.851783    7.041526    8.032040
C      -1.404073    8.299119    7.873034
O      -2.677037    8.705329    8.246257
C      -2.741534   10.041677    7.780280
O      -1.472789   10.470270    7.323136
C      -0.699093    9.319618    7.323136
C       0.574903    9.184491    6.899118
C       1.174456    7.922753    7.027207
C       2.589861    7.780994    6.472892
C       3.210128    6.496044    6.983039
C       2.256476    5.301455    6.795322
C       3.234926    4.149145    7.018373
O       4.496016    4.574422    6.735695
C       4.504806    5.984551    6.406640
O       3.028877    3.011757    7.301052
C       1.749304    5.129852    5.370889
H       2.157659    6.862462    9.776696
H       0.545591    3.226468    9.065583
H       0.439826    4.775040    7.484351
H       3.621250    8.178085   12.658690
H       2.343867    8.145754   11.777528
H       3.716345    7.746176   11.172420
H       3.408231    2.959530   14.220046
H       3.956173    3.320974   12.815488
H       2.913187    2.183586   12.970078
H      -0.020358    0.621750   11.276216
H       0.483300    1.175522    9.915826
H      -0.791300    1.769915   10.571728
H      -1.347836    6.329415    8.416306
H      -3.366464   10.093075    7.066959
H      -3.026340   10.605397    8.491392
H       1.049521    9.918156    6.530311
H       3.115510    8.519633    6.757779
H       2.554835    7.762756    5.525478
H       3.387803    6.780391    7.870825
H       5.246773    6.420605    6.806365
H       4.532813    6.113046    5.465851
H       1.103459    5.788078    5.141212
H       1.336862    4.274324    5.384139
H       2.448809    5.133997    4.728237
C      11.135391    7.330847   20.255670
C      11.753064    6.447962   21.119164
C      12.064879    6.814380   22.417718
C      11.720003    8.126687   22.868236
C      11.038115    8.958174   22.009159
C      10.778035    8.595072   20.699564
C      10.871814    6.992615   18.793693
O      12.738904    6.058332   23.329797
C      12.985550    4.712865   22.996325
O      11.991073    8.450826   24.177832
C      13.002508    9.404176   24.339047
O      10.687324   10.173488   22.576724
C       9.877467   11.033161   21.783900
C      10.272186    5.578341   18.645729
C       8.958154    5.393474   19.074163
C       8.405865    4.135881   18.915156
O       7.132901    3.729671   19.288380
C       7.068403    2.393323   18.822403
O       8.337148    1.964730   18.365259
C       9.110844    3.115382   18.365259
C      10.384840    3.250509   17.941241
C      10.984394    4.512247   18.069330
C      12.399799    4.654006   17.515015
C      13.020066    5.938956   18.025161
C      12.066413    7.133545   17.837445
C      13.044864    8.285855   18.060496
O      14.305953    7.860578   17.777818
C      14.314743    6.450449   17.448763
O      12.838814    9.423243   18.343175
C      11.559241    7.305148   16.413011
H      11.967596    5.572538   20.818818
H      10.355528    9.208532   20.107706
H      10.249763    7.659960   18.526474
H      13.431188    4.256915   23.700813
H      12.153805    4.289246   22.819651
H      13.526282    4.688824   22.214543
H      13.218169    9.475470   25.262169
H      13.766111    9.114026   23.857611
H      12.723124   10.251414   24.012200
H       9.789580   11.813250   22.318339
H      10.293237   11.259478   20.957949
H       9.018638   10.665085   21.613851
H       8.462102    6.105585   19.458429
H       6.443473    2.341925   18.109082
H       6.783597    1.829603   19.533515
H      10.859459    2.516844   17.572434
H      12.925447    3.915367   17.799902
H      12.364772    4.672244   16.567601
H      13.197741    5.654609   18.912948
H      15.056711    6.014395   17.848487
H      14.342751    6.321954   16.507974
H      10.913396    6.646922   16.183335
H      11.146799    8.160676   16.426262
H      12.258747    7.301003   15.770360
C       0.145391    3.185847   20.255670
C       0.763064    2.302962   21.119164
C       1.074879    2.669380   22.417718
C       0.730003    3.981687   22.868236
C       0.048115    4.813174   22.009159
C      -0.211965    4.450072   20.699564
C      -0.118186    2.847615   18.793693
O       1.748904    1.913332   23.329797
C       1.995550    0.567865   22.996325
O       1.001073    4.305826   24.177832
C       2.012508    5.259176   24.339047
O      -0.302676    6.028488   22.576724
C      -1.112533    6.888161   21.783900
C      -0.717814    1.433341   18.645729
C      -2.031846    1.248474   19.074163
C      -2.584135   -0.009119   18.915156
O      -3.857099   -0.415329   19.288380
C      -3.921597   -1.751677   18.822403
O      -2.652852   -2.180270   18.365259
C      -1.879156   -1.029618   18.365259
C      -0.605160   -0.894491   17.941241
C      -0.005606    0.367247   18.069330
C       1.409799    0.509006   17.515015
C       2.030066    1.793956   18.025161
C       1.076413    2.988545   17.837445
C       2.054864    4.140855   18.060496
O       3.315953    3.715578   17.777818
C       3.324743    2.305449   17.448763
O       1.848814    5.278243   18.343175
C       0.569241    3.160148   16.413011
H       0.977596    1.427538   20.818818
H      -0.634472    5.063532   20.107706
H      -0.740237    3.514960   18.526474
H       2.441188    0.111915   23.700813
H       1.163805    0.144246   22.819651
H       2.536282    0.543824   22.214543
H       2.228169    5.330470   25.262169
H       2.776111    4.969026   23.857611
H       1.733124    6.106414   24.012200
H      -1.200420    7.668250   22.318339
H      -0.696763    7.114478   20.957949
H      -1.971362    6.520085   21.613851
H      -2.527898    1.960585   19.458429
H      -4.546527   -1.803075   18.109082
H      -4.206403   -2.315397   19.533515
H      -0.130541   -1.628156   17.572434
H       1.935447   -0.229633   17.799902
H       1.374772    0.527244   16.567601
H       2.207741    1.509609   18.912948
H       4.066711    1.869395   17.848487
H       3.352751    2.176954   16.507974
H      -0.076604    2.501922   16.183335
H       0.156799    4.015676   16.426262
H       1.268747    3.156003   15.770360
C       7.304421    7.330847   12.870698
C       6.686748    6.447962   12.007204
C       6.374933    6.814380   10.708651
C       6.719810    8.126687   10.258132
C       7.401697    8.958174   11.117209
C       7.661778    8.595072   12.426805
C       7.567999    6.992615   14.332675
O       5.700909    6.058332    9.796571
C       5.454263    4.712865   10.130044
O       6.448739    8.450826    8.948536
C       5.437304    9.404176    8.787321
O       7.752488   10.173488   10.549644
C       8.562346   11.033161   11.342469
C       8.167626    5.578341   14.480640
C       9.481658    5.393474   14.052206
C      10.033948    4.135881   14.211212
O      11.306912    3.729671   13.837988
C      11.371409    2.393323   14.303966
O      10.102664    1.964730   14.761110
C       9.328968    3.115382   14.761110
C       8.054972    3.250509   15.185127
C       7.455419    4.512247   15.057039
C       6.040014    4.654006   15.611353
C       5.419747    5.938956   15.101207
C       6.373399    7.133545   15.288923
C       5.394949    8.285855   15.065872
O       4.133859    7.860578   15.348551
C       4.125069    6.450449   15.677606
O       5.600998    9.423243   14.783194
C       6.880571    7.305148   16.713357
H       6.472216    5.572538   12.307550
H       8.084284    9.208532   13.018663
H       8.190049    7.659960   14.599895
H       5.008625    4.256915    9.425556
H       6.286008    4.289246   10.306717
H       4.913530    4.688824   10.911826
H       5.221643    9.475470    7.864200
H       4.673702    9.114026    9.268758
H       5.716688   10.251414    9.114168
H       8.650233   11.813250   10.808030
H       8.146575   11.259478   12.168419
H       9.421175   10.665085   11.512517
H       9.977711    6.105585   13.667940
H      11.996339    2.341925   15.017287
H      11.656215    1.829603   13.592853
H       7.580354    2.516844   15.553934
H       5.514365    3.915367   15.326467
H       6.075040    4.672244   16.558767
H       5.242072    5.654609   14.213421
H       3.383102    6.014395   15.277881
H       4.097062    6.321954   16.618395
H       7.526416    6.646922   16.943033
H       7.293013    8.160676   16.700107
H       6.181066    7.301003   17.356009
C      18.294421    3.185847   12.870698
C      17.676748    2.302962   12.007204
C      17.364933    2.669380   10.708651
C      17.709810    3.981687   10.258132
C      18.391697    4.813174   11.117209
C      18.651778    4.450072   12.426805
C      18.557999    2.847615   14.332675
O      16.690909    1.913332    9.796571
C      16.444263    0.567865   10.130044
O      17.438739    4.305826    8.948536
C      16.427304    5.259176    8.787321
O      18.742488    6.028488   10.549644
C      19.552346    6.888161   11.342469
C      19.157626    1.433341   14.480640
C      20.471658    1.248474   14.052206
C      21.023948   -0.009119   14.211212
O      22.296912   -0.415329   13.837988
C      22.361409   -1.751677   14.303966
O      21.092664   -2.180270   14.761110
C      20.318968   -1.029618   14.761110
C      19.044972   -0.894491   15.185127
C      18.445419    0.367247   15.057039
C      17.030014    0.509006   15.611353
C      16.409747    1.793956   15.101207
C      17.363399    2.988545   15.288923
C      16.384949    4.140855   15.065872
O      15.123859    3.715578   15.348551
C      15.115069    2.305449   15.677606
O      16.590998    5.278243   14.783194
C      17.870571    3.160148   16.713357
H      17.462216    1.427538   12.307550
H      19.074284    5.063532   13.018663
H      19.180049    3.514960   14.599895
H      15.998625    0.111915    9.425556
H      17.276008    0.144246   10.306717
H      15.903530    0.543824   10.911826
H      16.211643    5.330470    7.864200
H      15.663702    4.969026    9.268758
H      16.706688    6.106414    9.114168
H      19.640233    7.668250   10.808030
H      19.136575    7.114478   12.168419
H      20.411175    6.520085   11.512517
H      20.967711    1.960585   13.667940
H      22.986339   -1.803075   15.017287
H      22.646215   -2.315397   13.592853
H      18.570354   -1.628156   15.553934
H      16.504365   -0.229633   15.326467
H      17.065040    0.527244   16.558767
H      16.232072    1.509609   14.213421
H      14.373102    1.869395   15.277881
H      15.087062    2.176954   16.618395
H      18.516416    2.501922   16.943033
H      18.283013    4.015676   16.700107
H      17.171066    3.156003   17.356009
