172
I
C       8.743408    5.218376   -1.183948
H       8.890605    5.842336   -1.911908
H       7.888697    5.418072   -0.771939
C       9.389926    4.710254   -1.462864
H       9.952329    3.951980   -1.686229
H       9.445895    5.359087   -2.181566
C       9.438504    4.605077    0.960583
H       8.534042    4.842437    1.219825
H      10.036609    4.805483    1.696645
C      10.038926    3.996041    0.690926
H      10.543087    3.328731    0.199061
H      10.515790    4.208529    1.509157
C       8.764726    3.793503   -1.693173
H       8.017301    3.644264   -2.292669
H       9.586129    3.631473   -2.185038
C       7.992960    4.274620   -1.273062
H       7.448149    5.022234   -0.981415
H       7.631897    3.940610   -2.108654
N       8.680531    2.895939   -0.565934
N       7.978124    3.220711   -0.265028
C       9.520694    3.139696    0.591395
H      10.446698    2.872488    0.416639
C       8.665910    3.501422    0.992989
H       8.164272    4.133909    1.549664
O       7.407035    1.301929   -1.509736
O       9.824465    5.312894   -0.198482
C       9.918841    2.583960    3.870572
H       9.287094    3.251980    4.008989
C       8.372839    1.056041    0.724025
H       9.089725    0.420711    0.568249
H       7.608373    0.582741    1.087890
C      10.826158    0.840000    2.546125
H      10.810302    0.316244    1.777658
C      10.887654    2.352285    4.821550
H      10.903564    2.866802    5.595687
C      11.796022    0.610457    3.497681
H      12.427813   -0.058985    3.365514
C      11.830633    1.370152    4.640428
H      12.484617    1.221625    5.284366
C       8.826578    2.156142    1.673614
C       9.878622    1.827818    2.706530
C       8.003178    1.759594   -0.548806
H       8.072472    2.473097    2.123699
C       3.096420    8.771676    6.970595
H       2.949223    9.395636    7.698555
H       3.951130    8.971372    6.558585
C       2.449901    8.263554    7.249511
H       1.887498    7.505280    7.472876
H       2.393932    8.912387    7.968213
C       2.401323    8.158377    4.826063
H       3.305786    8.395737    4.566822
H       1.803218    8.358783    4.090002
C       1.800902    7.549341    5.095721
H       1.296740    6.882031    5.587586
H       1.324038    7.761829    4.277489
C       3.075101    7.346803    7.479820
H       3.822527    7.197564    8.079316
H       2.253698    7.184773    7.971685
C       3.846867    7.827920    7.059709
H       4.391678    8.575534    6.768062
H       4.207931    7.493910    7.895301
N       3.159296    6.449240    6.352581
N       3.861704    6.774011    6.051675
C       2.319134    6.692996    5.195251
H       1.393130    6.425788    5.370008
C       3.173918    7.054722    4.793658
H       3.675556    7.687209    4.236983
O       4.432793    4.855229    7.296383
O       2.015362    8.866194    5.985129
C       1.920986    6.137260    1.916074
H       2.552734    6.805280    1.777658
C       3.466989    4.609341    5.062621
H       2.750103    3.974011    5.218398
H       4.231455    4.136041    4.698757
C       1.013670    4.393300    3.240522
H       1.029525    3.869544    4.008989
C       0.952173    5.905585    0.965097
H       0.936263    6.420102    0.190959
C       0.043806    4.163757    2.288966
H      -0.587986    3.494315    2.421133
C       0.009195    4.923452    1.146219
H      -0.644789    4.774925    0.502281
C       3.013249    5.709442    4.113033
C       1.961205    5.381118    3.080116
C       3.836650    5.312894    6.335452
H       3.767356    6.026397    3.662947
C       1.662547    1.888224   12.757241
H       1.515350    1.264264   13.485202
H       2.517258    1.688528   12.345232
C       1.016029    2.396346   13.036158
H       0.453626    3.154620   13.259522
H       0.960060    1.747513   13.754859
C       0.967451    2.501523   10.612710
H       1.871913    2.264163   10.353468
H       0.369346    2.301117    9.876649
C       0.367029    3.110559   10.882368
H      -0.137132    3.777869   11.374233
H      -0.109835    2.898071   10.064136
C       1.641229    3.313097   13.266466
H       2.388654    3.462336   13.865963
H       0.819826    3.475127   13.758331
C       2.412995    2.831980   12.846356
H       2.957806    2.084366   12.554709
H       2.774058    3.165990   13.681948
N       1.725424    4.210661   12.139228
N       2.427831    3.885889   11.838322
C       0.885261    3.966904   10.981898
H      -0.040743    4.234112   11.156655
C       1.740045    3.605178   10.580305
H       2.241683    2.972691   10.023629
O       2.998920    5.804671   13.083030
O       0.581490    1.793706   11.771775
C       0.487114    4.522640    7.702721
H       1.118861    3.854620    7.564305
C       2.033116    6.050559   10.849268
H       1.316230    6.685889   11.005045
H       2.797582    6.523859   10.485404
C      -0.420203    6.266600    9.027169
H      -0.404347    6.790356    9.795636
C      -0.481699    4.754315    6.751744
H      -0.497609    4.239798    5.977606
C      -1.390067    6.496143    8.075613
H      -2.021858    7.165585    8.207780
C      -1.424678    5.736448    6.932866
H      -2.078662    5.884975    6.288928
C       1.579377    4.950458    9.899679
C       0.527333    5.278782    8.866763
C       2.402777    5.347006   12.122099
H       2.333483    4.633503    9.449594
C       7.309535   -1.665076    4.602699
H       7.456732   -2.289036    3.874739
H       6.454825   -1.864772    5.014708
C       7.956054   -1.156954    4.323782
H       8.518457   -0.398680    4.100418
H       8.012023   -1.805787    3.605081
C       8.004632   -1.051777    6.747230
H       7.100169   -1.289137    7.006472
H       8.602737   -1.252183    7.483292
C       8.605053   -0.442741    6.477572
H       9.109215    0.224569    5.985707
H       9.081917   -0.655229    7.295804
C       7.330854   -0.240203    4.093474
H       6.583428   -0.090964    3.493977
H       8.152257   -0.078173    3.601609
C       6.559088   -0.721320    4.513584
H       6.014277   -1.468934    4.805231
H       6.198024   -0.387310    3.677993
N       7.246659    0.657361    5.220713
N       6.544251    0.332589    5.521618
C       8.086821    0.413604    6.378042
H       9.012825    0.680812    6.203285
C       7.232037    0.051878    6.779635
H       6.730399   -0.580609    7.336311
O       5.973162    2.251371    4.276911
O       8.390593   -1.759594    5.588165
C       8.484969    0.969340    9.657219
H       7.853221    0.301320    9.795636
C       6.938966    2.497259    6.510672
H       7.655852    3.132589    6.354895
H       6.174500    2.970559    6.874536
C       9.392285    2.713300    8.332771
H       9.376430    3.237056    7.564305
C       9.453782    1.201015   10.608197
H       9.469692    0.686498   11.382334
C      10.362149    2.942843    9.284327
H      10.993941    3.612285    9.152160
C      10.396760    2.183148   10.427074
H      11.050744    2.331675   11.071013
C       7.392706    1.397158    7.460261
C       8.444750    1.725482    8.493177
C       6.569305    1.793706    5.237841
H       6.638599    1.080203    7.910346
