40
comment_line
H	 3.13930	 -0.72140	 -1.58542	
C	 -1.71858	 3.47104	 0.75248	
C	 -2.72334	 2.62047	 1.13786	
H	 4.23010	 1.89067	 1.40318	
C	 -2.46063	 1.26062	 1.25585	
C	 -1.19162	 0.74346	 0.98326	
C	 0.54444	 -0.34075	 -1.60421	
H	 2.00242	 2.38946	 1.76937	
H	 1.37252	 0.52557	 -3.26944	
C	 -0.93044	 -0.70565	 1.25868	
H	 0.25100	 3.58392	 0.22980	
C	 -1.10097	 -1.16769	 2.56398	
H	 -1.86914	 4.42399	 0.72326	
C	 -0.94580	 -2.50129	 2.87062	
H	 -3.68201	 2.99325	 1.30675	
C	 -0.63086	 -3.40567	 1.87887	
H	 -3.15966	 0.66995	 1.56949	
C	 1.55995	 0.24729	 -0.67552	
C	 -0.46647	 -2.96858	 0.58454	
H	 -1.39288	 -0.53764	 3.28625	
C	 2.90885	 -0.05460	 -0.87297	
C	 -0.60167	 -1.62054	 0.25290	
H	 4.84463	 0.30242	 -0.33191	
H	 -0.99343	 -2.78219	 3.80107	
C	 -0.45879	 -1.21494	 -1.17493	
C	 3.90439	 0.53738	 -0.12062	
H	 -0.53253	 -4.35731	 2.09462	
C	 3.57408	 1.43913	 0.85599	
C	 -1.31299	 -1.78330	 -2.12550	
H	 -0.22526	 -3.58287	 -0.17248	
C	 2.24362	 1.73972	 1.08601	
C	 -1.19008	 -1.48796	 -3.46776	
H	 -2.03814	 -2.38841	 -1.84791	
C	 1.22196	 1.16086	 0.33034	
C	 -0.21144	 -0.62427	 -3.88918	
H	 -1.82305	 -1.87649	 -4.11419	
C	 0.65352	 -0.05723	 -2.96844	
C	 -0.17764	 1.61896	 0.56507	
H	 -0.14845	 -0.41951	 -4.80286	
C	 -0.46493	 2.98013	 0.46312	
