40
comment_line
C     1.55996493    0.24728753   -0.67548808
C    -0.46647326   -2.96857506    0.58456156
H    -1.39295181   -0.53760836    3.28622403
C     2.90887033   -0.05460036   -0.87290439
H     4.84463702    0.30243170   -0.33180471
C    -0.60167006   -1.62053913    0.25290373
H    -0.99350630   -2.78215145    3.80107765
C     3.90439151    0.53739104   -0.12053846
C    -0.45875919   -1.21495434   -1.17492750
H    -0.53256288   -4.35728871    2.09465531
C     3.57405666    1.43915071    0.85605421
C    -1.31293598   -1.78332748   -2.12551051
H    -0.22524427   -3.58287261   -0.17244627
C     2.24359053    1.73973902    1.08604095
C    -1.18999669   -1.48800181   -3.46777098
H    -2.03809032   -2.38843673   -1.84793020
C     1.22194938    1.16086749    0.33035429
C    -0.21134993   -0.62431334   -3.88917841
H    -1.82295090   -1.87654091   -4.11421097
C     0.65358754   -0.05726050   -2.96842515
C    -0.17765735    1.61896564    0.56504774
H    -0.14834000   -0.41956316   -4.80285924
C    -0.46494937    2.98013361    0.46307633
H     1.37259247    0.52553848   -3.26941535
C     0.54447771   -0.34076587   -1.60419450
H     3.13933849   -0.72140745   -1.58534188
C    -1.71860744    3.47104281    0.75240271
C    -2.72337343    2.62047386    1.13776942
H     4.23006291    1.89069879    1.40325403
C    -2.46066178    1.26062598    1.25578025
C    -1.19164400    0.74346701    0.98322451
H     2.00237308    2.38948575    1.76938838
H     0.25098397    3.58392332    0.22976584
C    -0.93046561   -0.70563914    1.25866629
H    -1.86916980    4.42399201    0.72316887
C    -1.10102355   -1.16766536    2.56396751
H    -3.15969697    0.66995721    1.56941099
C    -0.94585623   -2.50126150    2.87062564
H    -3.68204841    2.99325267    1.30663373
C    -0.63089103   -3.40565139    1.87889265
