240
AZIBYR
C       0.722775    1.444594    0.871388
C       1.616972    0.634172    1.709977
C      -0.269831    2.203130    1.750430
C       1.549419    2.390911   -0.005467
H      -0.772093    2.742588    1.202669
H       0.112264    2.874364    2.361605
H      -0.732720    1.482480    2.230405
H       1.050682    2.824948   -0.612268
H       1.918522    3.146152    0.546668
H       2.157388    1.820156   -0.612268
N      -0.085586    0.602052   -0.054667
N       2.324537    0.044474    2.387845
N       0.085586   -0.602052    0.054667
C      -0.722775   -1.444594   -0.871388
C      -1.616972   -0.634172   -1.709977
C       0.269831   -2.203130   -1.750430
C      -1.549419   -2.390911    0.005467
N      -2.324537   -0.044474   -2.387845
H       0.772093   -2.742588   -1.202669
H      -0.112264   -2.874364   -2.361605
H       0.732720   -1.482480   -2.230405
H      -1.050682   -2.824948    0.612268
H      -1.918522   -3.146152   -0.546668
H      -2.157388   -1.820156    0.612268
C      -0.439873    1.444594   11.804744
C       0.454323    0.634172   12.643333
C      -1.432480    2.203130   12.683786
C       0.386770    2.390911   10.927889
H      -1.934742    2.742588   12.136025
H      -1.050385    2.874364   13.294961
H      -1.895369    1.482480   13.163761
H      -0.111967    2.824948   10.321088
H       0.755873    3.146152   11.480024
H       0.994739    1.820156   10.321088
N      -1.248235    0.602052   10.878689
N       1.161888    0.044474   13.321201
N      -1.077063   -0.602052   10.988023
C      -1.885424   -1.444594   10.061967
C      -2.779621   -0.634172    9.223379
C      -0.892818   -2.203130    9.182926
C      -2.712068   -2.390911   10.938823
N      -3.487186   -0.044474    8.545511
H      -0.390556   -2.742588    9.730687
H      -1.274913   -2.874364    8.571751
H      -0.429929   -1.482480    8.702951
H      -2.213331   -2.824948   11.545624
H      -3.081170   -3.146152   10.386688
H      -3.320037   -1.820156   11.545624
C       0.722775    9.680594    0.871388
C       1.616972    8.870172    1.709977
C      -0.269831   10.439130    1.750430
C       1.549419   10.626911   -0.005467
H      -0.772093   10.978588    1.202669
H       0.112264   11.110364    2.361605
H      -0.732720    9.718480    2.230405
H       1.050682   11.060948   -0.612268
H       1.918522   11.382152    0.546668
H       2.157388   10.056156   -0.612268
N      -0.085586    8.838052   -0.054667
N       2.324537    8.280474    2.387845
N       0.085586    7.633948    0.054667
C      -0.722775    6.791406   -0.871388
C      -1.616972    7.601828   -1.709977
C       0.269831    6.032870   -1.750430
C      -1.549419    5.845089    0.005467
N      -2.324537    8.191526   -2.387845
H       0.772093    5.493412   -1.202669
H      -0.112264    5.361636   -2.361605
H       0.732720    6.753520   -2.230405
H      -1.050682    5.411052    0.612268
H      -1.918522    5.089848   -0.546668
H      -2.157388    6.415844    0.612268
C      -0.439873    9.680594   11.804744
C       0.454323    8.870172   12.643333
C      -1.432480   10.439130   12.683786
C       0.386770   10.626911   10.927889
H      -1.934742   10.978588   12.136025
H      -1.050385   11.110364   13.294961
H      -1.895369    9.718480   13.163761
H      -0.111967   11.060948   10.321088
H       0.755873   11.382152   11.480024
H       0.994739   10.056156   10.321088
N      -1.248235    8.838052   10.878689
N       1.161888    8.280474   13.321201
N      -1.077063    7.633948   10.988023
C      -1.885424    6.791406   10.061967
C      -2.779621    7.601828    9.223379
C      -0.892818    6.032870    9.182926
C      -2.712068    5.845089   10.938823
N      -3.487186    8.191526    8.545511
H      -0.390556    5.493412    9.730687
H      -1.274913    5.361636    8.571751
H      -0.429929    6.753520    8.702951
H      -2.213331    5.411052   11.545624
H      -3.081170    5.089848   10.386688
H      -3.320037    6.415844   11.545624
C       6.228775    1.444594    0.871388
C       7.122972    0.634172    1.709977
C       5.236169    2.203130    1.750430
C       7.055419    2.390911   -0.005467
H       4.733907    2.742588    1.202669
H       5.618264    2.874364    2.361605
H       4.773280    1.482480    2.230405
H       6.556682    2.824948   -0.612268
H       7.424522    3.146152    0.546668
H       7.663388    1.820156   -0.612268
N       5.420414    0.602052   -0.054667
N       7.830537    0.044474    2.387845
N       5.591586   -0.602052    0.054667
C       4.783225   -1.444594   -0.871388
C       3.889028   -0.634172   -1.709977
C       5.775831   -2.203130   -1.750430
C       3.956581   -2.390911    0.005467
N       3.181463   -0.044474   -2.387845
H       6.278093   -2.742588   -1.202669
H       5.393736   -2.874364   -2.361605
H       6.238720   -1.482480   -2.230405
H       4.455318   -2.824948    0.612268
H       3.587478   -3.146152   -0.546668
H       3.348612   -1.820156    0.612268
C       5.066127    1.444594   11.804744
C       5.960323    0.634172   12.643333
C       4.073520    2.203130   12.683786
C       5.892770    2.390911   10.927889
H       3.571258    2.742588   12.136025
H       4.455615    2.874364   13.294961
H       3.610631    1.482480   13.163761
H       5.394033    2.824948   10.321088
H       6.261873    3.146152   11.480024
H       6.500739    1.820156   10.321088
N       4.257765    0.602052   10.878689
N       6.667888    0.044474   13.321201
N       4.428937   -0.602052   10.988023
C       3.620576   -1.444594   10.061967
C       2.726379   -0.634172    9.223379
C       4.613182   -2.203130    9.182926
C       2.793932   -2.390911   10.938823
N       2.018814   -0.044474    8.545511
H       5.115444   -2.742588    9.730687
H       4.231087   -2.874364    8.571751
H       5.076071   -1.482480    8.702951
H       3.292669   -2.824948   11.545624
H       2.424830   -3.146152   10.386688
H       2.185963   -1.820156   11.545624
C       6.228775    9.680594    0.871388
C       7.122972    8.870172    1.709977
C       5.236169   10.439130    1.750430
C       7.055419   10.626911   -0.005467
H       4.733907   10.978588    1.202669
H       5.618264   11.110364    2.361605
H       4.773280    9.718480    2.230405
H       6.556682   11.060948   -0.612268
H       7.424522   11.382152    0.546668
H       7.663388   10.056156   -0.612268
N       5.420414    8.838052   -0.054667
N       7.830537    8.280474    2.387845
N       5.591586    7.633948    0.054667
C       4.783225    6.791406   -0.871388
C       3.889028    7.601828   -1.709977
C       5.775831    6.032870   -1.750430
C       3.956581    5.845089    0.005467
N       3.181463    8.191526   -2.387845
H       6.278093    5.493412   -1.202669
H       5.393736    5.361636   -2.361605
H       6.238720    6.753520   -2.230405
H       4.455318    5.411052    0.612268
H       3.587478    5.089848   -0.546668
H       3.348612    6.415844    0.612268
C       5.066127    9.680594   11.804744
C       5.960323    8.870172   12.643333
C       4.073520   10.439130   12.683786
C       5.892770   10.626911   10.927889
H       3.571258   10.978588   12.136025
H       4.455615   11.110364   13.294961
H       3.610631    9.718480   13.163761
H       5.394033   11.060948   10.321088
H       6.261873   11.382152   11.480024
H       6.500739   10.056156   10.321088
N       4.257765    8.838052   10.878689
N       6.667888    8.280474   13.321201
N       4.428937    7.633948   10.988023
C       3.620576    6.791406   10.061967
C       2.726379    7.601828    9.223379
C       4.613182    6.032870    9.182926
C       2.793932    5.845089   10.938823
N       2.018814    8.191526    8.545511
H       5.115444    5.493412    9.730687
H       4.231087    5.361636    8.571751
H       5.076071    6.753520    8.702951
H       3.292669    5.411052   11.545624
H       2.424830    5.089848   10.386688
H       2.185963    6.415844   11.545624
C      -1.304100    5.562594    4.595290
C      -2.198296    4.752172    3.756701
C      -0.311493    6.321130    3.716248
C      -2.130744    6.508911    5.472145
H       0.190769    6.860588    4.264009
H      -0.693588    6.992364    3.105073
H       0.151396    5.600480    3.236273
H      -1.632007    6.942948    6.078946
H      -2.499846    7.264152    4.920010
H      -2.738713    5.938156    6.078946
N      -0.495738    4.720052    5.521345
N      -2.905862    4.162474    3.078833
N      -0.666911    3.515948    5.412011
C       0.141451    2.673406    6.338066
C       1.035647    3.483828    7.176655
C      -0.851156    1.914870    7.217108
C       0.968095    1.727089    5.461211
N       1.743213    4.073526    7.854523
H      -1.353418    1.375412    6.669347
H      -0.469061    1.243636    7.828283
H      -1.314045    2.635520    7.697083
H       0.469358    1.293052    4.854410
H       1.337197    0.971848    6.013346
H       1.576064    2.297844    4.854410
C       4.201900    5.562594    4.595290
C       3.307704    4.752172    3.756701
C       5.194507    6.321130    3.716248
C       3.375256    6.508911    5.472145
H       5.696769    6.860588    4.264009
H       4.812412    6.992364    3.105073
H       5.657396    5.600480    3.236273
H       3.873993    6.942948    6.078946
H       3.006154    7.264152    4.920010
H       2.767287    5.938156    6.078946
N       5.010262    4.720052    5.521345
N       2.600138    4.162474    3.078833
N       4.839089    3.515948    5.412011
C       5.647451    2.673406    6.338066
C       6.541647    3.483828    7.176655
C       4.654844    1.914870    7.217108
C       6.474095    1.727089    5.461211
N       7.249213    4.073526    7.854523
H       4.152582    1.375412    6.669347
H       5.036939    1.243636    7.828283
H       4.191955    2.635520    7.697083
H       5.975358    1.293052    4.854410
H       6.843197    0.971848    6.013346
H       7.082064    2.297844    4.854410
