234
telt3
O       0.000000    1.761632    6.039045
O       7.354448    1.445710    5.577750
O       6.539897    2.121491    3.630060
N       0.705895    1.297164    8.053668
C       1.062330    1.571242    6.857919
C       2.415386    1.659812    6.324867
C       3.472944    1.266478    7.135299
C       4.760661    1.335521    6.660135
C       5.021654    1.793015    5.379966
C       3.966299    2.200994    4.585212
C       2.660596    2.130557    5.048919
C       6.422799    1.781857    4.913847
C       7.872031    2.043382    3.068667
H       3.296378    0.955438    7.953570
H       5.473163    1.080970    7.205850
H       4.140662    2.559458    3.642120
H       1.938182    2.426952    4.516470
H       7.752730    2.378134    2.206980
H       8.222592    1.129788    3.280320
H       8.395120    2.657094    3.412980
O      -7.354448    1.445710    5.577750
O      -6.539897    2.121491    3.630060
N      -0.705895    1.297164    8.053668
C      -1.062330    1.571242    6.857919
C      -2.415386    1.659812    6.324867
C      -3.472944    1.266478    7.135299
C      -4.760661    1.335521    6.660135
C      -5.021654    1.793015    5.379966
C      -3.966299    2.200994    4.585212
C      -2.660596    2.130557    5.048919
C      -6.422799    1.781857    4.913847
C      -7.872031    2.043382    3.068667
H      -3.296378    0.955438    7.953570
H      -5.473163    1.080970    7.205850
H      -4.140662    2.559458    3.642120
H      -1.938182    2.426952    4.516470
H      -7.752730    2.378134    2.206980
H      -8.222592    1.129788    3.280320
H      -8.395120    2.657094    3.412980
O      36.708000    1.761632    6.039045
O      44.062448    1.445710    5.577750
O      43.247897    2.121491    3.630060
N      37.413895    1.297164    8.053668
C      37.770330    1.571242    6.857919
C      39.123386    1.659812    6.324867
C      40.180944    1.266478    7.135299
C      41.468661    1.335521    6.660135
C      41.729654    1.793015    5.379966
C      40.674299    2.200994    4.585212
C      39.368596    2.130557    5.048919
C      43.130799    1.781857    4.913847
C      44.580031    2.043382    3.068667
H      40.004378    0.955438    7.953570
H      42.181163    1.080970    7.205850
H      40.848662    2.559458    3.642120
H      38.646182    2.426952    4.516470
H      44.460730    2.378134    2.206980
H      44.930592    1.129788    3.280320
H      45.103120    2.657094    3.412980
O      29.353552    1.445710    5.577750
O      30.168103    2.121491    3.630060
N      36.002105    1.297164    8.053668
C      35.645670    1.571242    6.857919
C      34.292614    1.659812    6.324867
C      33.235056    1.266478    7.135299
C      31.947339    1.335521    6.660135
C      31.686346    1.793015    5.379966
C      32.741701    2.200994    4.585212
C      34.047404    2.130557    5.048919
C      30.285201    1.781857    4.913847
C      28.835969    2.043382    3.068667
H      33.411622    0.955438    7.953570
H      31.234837    1.080970    7.205850
H      32.567338    2.559458    3.642120
H      34.769818    2.426952    4.516470
H      28.955270    2.378134    2.206980
H      28.485408    1.129788    3.280320
H      28.312880    2.657094    3.412980
O       0.000000    5.212368    3.024045
O      -7.354448    5.528290    2.562750
O      -6.539897    4.852509    0.615060
N      -0.705895    5.676836    5.038668
C      -1.062330    5.402758    3.842919
C      -2.415386    5.314188    3.309867
C      -3.472944    5.707522    4.120299
C      -4.760661    5.638479    3.645135
C      -5.021654    5.180985    2.364966
C      -3.966299    4.773006    1.570212
C      -2.660596    4.843443    2.033919
C      -6.422799    5.192143    1.898847
C      -7.872031    4.930618    0.053667
H      -3.296378    6.018562    4.938570
H      -5.473163    5.893030    4.190850
H      -4.140662    4.414542    0.627120
H      -1.938182    4.547048    1.501470
H      -7.752730    4.595866   -0.808020
H      -8.222592    5.844212    0.265320
H      -8.395120    4.316906    0.397980
O       7.354448    5.528290    2.562750
O       6.539897    4.852509    0.615060
N       0.705895    5.676836    5.038668
C       1.062330    5.402758    3.842919
C       2.415386    5.314188    3.309867
C       3.472944    5.707522    4.120299
C       4.760661    5.638479    3.645135
C       5.021654    5.180985    2.364966
C       3.966299    4.773006    1.570212
C       2.660596    4.843443    2.033919
C       6.422799    5.192143    1.898847
C       7.872031    4.930618    0.053667
H       3.296378    6.018562    4.938570
H       5.473163    5.893030    4.190850
H       4.140662    4.414542    0.627120
H       1.938182    4.547048    1.501470
H       7.752730    4.595866   -0.808020
H       8.222592    5.844212    0.265320
H       8.395120    4.316906    0.397980
O      36.708000    5.212368    3.024045
O      29.353552    5.528290    2.562750
O      30.168103    4.852509    0.615060
N      36.002105    5.676836    5.038668
C      35.645670    5.402758    3.842919
C      34.292614    5.314188    3.309867
C      33.235056    5.707522    4.120299
C      31.947339    5.638479    3.645135
C      31.686346    5.180985    2.364966
C      32.741701    4.773006    1.570212
C      34.047404    4.843443    2.033919
C      30.285201    5.192143    1.898847
C      28.835969    4.930618    0.053667
H      33.411622    6.018562    4.938570
H      31.234837    5.893030    4.190850
H      32.567338    4.414542    0.627120
H      34.769818    4.547048    1.501470
H      28.955270    4.595866   -0.808020
H      28.485408    5.844212    0.265320
H      28.312880    4.316906    0.397980
O      44.062448    5.528290    2.562750
O      43.247897    4.852509    0.615060
N      37.413895    5.676836    5.038668
C      37.770330    5.402758    3.842919
C      39.123386    5.314188    3.309867
C      40.180944    5.707522    4.120299
C      41.468661    5.638479    3.645135
C      41.729654    5.180985    2.364966
C      40.674299    4.773006    1.570212
C      39.368596    4.843443    2.033919
C      43.130799    5.192143    1.898847
C      44.580031    4.930618    0.053667
H      40.004378    6.018562    4.938570
H      42.181163    5.893030    4.190850
H      40.848662    4.414542    0.627120
H      38.646182    4.547048    1.501470
H      44.460730    4.595866   -0.808020
H      44.930592    5.844212    0.265320
H      45.103120    4.316906    0.397980
O      18.354000    5.248632    6.039045
O      25.708448    4.932710    5.577750
O      24.893897    5.608491    3.630060
N      19.059895    4.784164    8.053668
C      19.416330    5.058242    6.857919
C      20.769386    5.146812    6.324867
C      21.826944    4.753478    7.135299
C      23.114661    4.822521    6.660135
C      23.375654    5.280015    5.379966
C      22.320299    5.687994    4.585212
C      21.014596    5.617557    5.048919
C      24.776799    5.268857    4.913847
C      26.226031    5.530382    3.068667
H      21.650378    4.442438    7.953570
H      23.827163    4.567970    7.205850
H      22.494662    6.046458    3.642120
H      20.292182    5.913952    4.516470
H      26.106730    5.865134    2.206980
H      26.576592    4.616788    3.280320
H      26.749120    6.144094    3.412980
O      10.999552    4.932710    5.577750
O      11.814103    5.608491    3.630060
N      17.648105    4.784164    8.053668
C      17.291670    5.058242    6.857919
C      15.938614    5.146812    6.324867
C      14.881056    4.753478    7.135299
C      13.593339    4.822521    6.660135
C      13.332346    5.280015    5.379966
C      14.387701    5.687994    4.585212
C      15.693404    5.617557    5.048919
C      11.931201    5.268857    4.913847
C      10.481969    5.530382    3.068667
H      15.057622    4.442438    7.953570
H      12.880837    4.567970    7.205850
H      14.213338    6.046458    3.642120
H      16.415818    5.913952    4.516470
H      10.601270    5.865134    2.206980
H      10.131408    4.616788    3.280320
H       9.958880    6.144094    3.412980
O      18.354000    1.725368    3.024045
O      10.999552    2.041290    2.562750
O      11.814103    1.365509    0.615060
N      17.648105    2.189836    5.038668
C      17.291670    1.915758    3.842919
C      15.938614    1.827188    3.309867
C      14.881056    2.220522    4.120299
C      13.593339    2.151479    3.645135
C      13.332346    1.693985    2.364966
C      14.387701    1.286006    1.570212
C      15.693404    1.356443    2.033919
C      11.931201    1.705143    1.898847
C      10.481969    1.443618    0.053667
H      15.057622    2.531562    4.938570
H      12.880837    2.406030    4.190850
H      14.213338    0.927542    0.627120
H      16.415818    1.060048    1.501470
H      10.601270    1.108866   -0.808020
H      10.131408    2.357212    0.265320
H       9.958880    0.829906    0.397980
O      25.708448    2.041290    2.562750
O      24.893897    1.365509    0.615060
N      19.059895    2.189836    5.038668
C      19.416330    1.915758    3.842919
C      20.769386    1.827188    3.309867
C      21.826944    2.220522    4.120299
C      23.114661    2.151479    3.645135
C      23.375654    1.693985    2.364966
C      22.320299    1.286006    1.570212
C      21.014596    1.356443    2.033919
C      24.776799    1.705143    1.898847
C      26.226031    1.443618    0.053667
H      21.650378    2.531562    4.938570
H      23.827163    2.406030    4.190850
H      22.494662    0.927542    0.627120
H      20.292182    1.060048    1.501470
H      26.106730    1.108866   -0.808020
H      26.576592    2.357212    0.265320
H      26.749120    0.829906    0.397980
